data_image0
_chemical_formula_structural       OH2OH2OH2OH2OH2OH2OH2OH2OH2OH2OH2OH2OH2OH2OH2OH2OH2OH2OH2OH2OH2OH2OH2OH2OH2OH2OH2OH2OH2OH2OH2OH2OH2OH2OH2OH2OH2OH2OH2OH2OH2OH2OH2OH2OH2OH2OH2OH2OH2OH2OH2OH2OH2OH2OH2OH2OH2OH2OH2OH2OH2OH2OH2OH2OH2OH2OH2OH2OH2OH2OH2OH2OH2OH2OH2OH2OH2OH2OH2OH2OH2OH2OH2OH2OH2OH2OH2OH2OH2OH2OH2OH2OH2OH2OH2OH2OH2OH2OH2OH2OH2OH2OH2OH2OH2OH2OH2OH2OH2OH2OH2OH2OH2OH2OH2OH2OH2OH2OH2OH2OH2OH2OH2OH2OH2
_chemical_formula_sum              "O125 H250"
_cell_length_a       15.536
_cell_length_b       15.536
_cell_length_c       15.536
_cell_angle_alpha    90
_cell_angle_beta     90
_cell_angle_gamma    90

_space_group_name_H-M_alt    "P 1"
_space_group_IT_number       1

loop_
  _space_group_symop_operation_xyz
  'x, y, z'

loop_
  _atom_site_type_symbol
  _atom_site_label
  _atom_site_symmetry_multiplicity
  _atom_site_fract_x
  _atom_site_fract_y
  _atom_site_fract_z
  _atom_site_occupancy
  O   O1        1.0  0.13744  0.08515  0.09203  1.0000
  H   H1        1.0  0.09938  0.12200  0.12625  1.0000
  H   H2        1.0  0.10049  0.07152  0.04003  1.0000
  O   O2        1.0  0.50502  0.17421  0.96518  1.0000
  H   H3        1.0  0.54726  0.21769  0.95266  1.0000
  H   H4        1.0  0.54331  0.12657  0.95241  1.0000
  O   O3        1.0  0.20104  0.38933  0.68790  1.0000
  H   H5        1.0  0.23653  0.42710  0.65185  1.0000
  H   H6        1.0  0.24085  0.35482  0.72394  1.0000
  O   O4        1.0  0.29135  0.97906  0.89929  1.0000
  H   H7        1.0  0.23092  0.97471  0.92438  1.0000
  H   H8        1.0  0.29717  1.04242  0.89737  1.0000
  O   O5        1.0  0.50878  0.59697  0.32012  1.0000
  H   H9        1.0  0.57359  0.60614  0.31515  1.0000
  H   H10       1.0  0.47951  0.65396  0.31863  1.0000
  O   O6        1.0  0.11667  0.30727  0.51736  1.0000
  H   H11       1.0  0.11856  0.36549  0.54409  1.0000
  H   H12       1.0  0.06222  0.30246  0.49224  1.0000
  O   O7        1.0  0.28223  0.41014  0.44479  1.0000
  H   H13       1.0  0.29319  0.34223  0.44096  1.0000
  H   H14       1.0  0.32054  0.44415  0.40371  1.0000
  O   O8        1.0  0.39434  0.66880  0.19046  1.0000
  H   H15       1.0  0.37976  0.63615  0.24321  1.0000
  H   H16       1.0  0.35455  0.71942  0.20050  1.0000
  O   O9        1.0  0.35970  0.18205  0.86935  1.0000
  H   H17       1.0  0.31006  0.20220  0.90512  1.0000
  H   H18       1.0  0.40836  0.17778  0.90571  1.0000
  O   O10       1.0  0.89471  0.22000  0.54647  1.0000
  H   H19       1.0  0.93097  0.23881  0.59452  1.0000
  H   H20       1.0  0.84291  0.18874  0.56584  1.0000
  O   O11       1.0  0.92656  0.95195  0.26475  1.0000
  H   H21       1.0  0.86753  0.94291  0.28297  1.0000
  H   H22       1.0  0.91533  0.97934  0.20697  1.0000
  O   O12       1.0  0.48709  0.82684  0.95970  1.0000
  H   H23       1.0  0.42286  0.82190  0.94915  1.0000
  H   H24       1.0  0.51529  0.78813  0.91627  1.0000
  O   O13       1.0  0.39690  0.29774  0.60499  1.0000
  H   H25       1.0  0.34251  0.26700  0.58054  1.0000
  H   H26       1.0  0.38495  0.36025  0.60279  1.0000
  O   O14       1.0  0.84913  0.87227  0.01590  1.0000
  H   H27       1.0  0.83206  0.82703  0.05653  1.0000
  H   H28       1.0  0.87003  0.92432  0.04998  1.0000
  O   O15       1.0  0.65215  0.36778  0.59050  1.0000
  H   H29       1.0  0.69449  0.37700  0.54533  1.0000
  H   H30       1.0  0.61811  0.31671  0.57105  1.0000
  O   O16       1.0  0.28076  0.80439  0.19496  1.0000
  H   H31       1.0  0.24416  0.77254  0.15625  1.0000
  H   H32       1.0  0.25135  0.78508  0.24653  1.0000
  O   O17       1.0  0.54325  0.47376  0.47903  1.0000
  H   H33       1.0  0.56185  0.43047  0.51481  1.0000
  H   H34       1.0  0.58294  0.47420  0.43166  1.0000
  O   O18       1.0  0.70173  0.75508  0.55748  1.0000
  H   H35       1.0  0.71058  0.78912  0.60610  1.0000
  H   H36       1.0  0.64038  0.72990  0.56831  1.0000
  O   O19       1.0  0.02967  0.37318  0.88228  1.0000
  H   H37       1.0  0.02926  0.35883  0.94627  1.0000
  H   H38       1.0  -0.01814  0.33856  0.85608  1.0000
  O   O20       1.0  0.84935  0.25000  0.04849  1.0000
  H   H39       1.0  0.91070  0.25748  0.04375  1.0000
  H   H40       1.0  0.83850  0.22910  0.11105  1.0000
  O   O21       1.0  0.68342  0.74888  0.83084  1.0000
  H   H41       1.0  0.72640  0.70707  0.85413  1.0000
  H   H42       1.0  0.71344  0.77428  0.78267  1.0000
  O   O22       1.0  0.20236  0.05247  0.61149  1.0000
  H   H43       1.0  0.24654  0.01749  0.58000  1.0000
  H   H44       1.0  0.22412  0.11076  0.60925  1.0000
  O   O23       1.0  0.34542  0.66220  0.86773  1.0000
  H   H45       1.0  0.40833  0.66668  0.86601  1.0000
  H   H46       1.0  0.33642  0.60527  0.88984  1.0000
  O   O24       1.0  0.00381  0.24237  0.38729  1.0000
  H   H47       1.0  0.00175  0.20541  0.43729  1.0000
  H   H48       1.0  0.02307  0.20539  0.34209  1.0000
  O   O25       1.0  0.97223  0.75879  0.69962  1.0000
  H   H49       1.0  0.96492  0.69578  0.71084  1.0000
  H   H50       1.0  1.02675  0.76731  0.73195  1.0000
  O   O26       1.0  0.50888  0.15842  0.33703  1.0000
  H   H51       1.0  0.45439  0.19141  0.33560  1.0000
  H   H52       1.0  0.55089  0.17868  0.29840  1.0000
  O   O27       1.0  0.30033  0.93675  0.74025  1.0000
  H   H53       1.0  0.30154  0.95517  0.80048  1.0000
  H   H54       1.0  0.26579  0.98609  0.71232  1.0000
  O   O28       1.0  0.14890  0.85484  0.60191  1.0000
  H   H55       1.0  0.11491  0.83649  0.54877  1.0000
  H   H56       1.0  0.20107  0.88184  0.58146  1.0000
  O   O29       1.0  0.73360  0.38928  0.02690  1.0000
  H   H57       1.0  0.77184  0.33823  0.03487  1.0000
  H   H58       1.0  0.76175  0.42507  -0.01679  1.0000
  O   O30       1.0  0.19700  0.72380  0.07573  1.0000
  H   H59       1.0  0.23482  0.74404  0.02963  1.0000
  H   H60       1.0  0.20373  0.65830  0.06814  1.0000
  O   O31       1.0  0.33060  0.33942  0.79569  1.0000
  H   H61       1.0  0.34846  0.27847  0.79835  1.0000
  H   H62       1.0  0.38171  0.37355  0.77256  1.0000
  O   O32       1.0  0.54421  0.24301  0.49826  1.0000
  H   H63       1.0  0.49293  0.25799  0.53032  1.0000
  H   H64       1.0  0.53070  0.24794  0.43738  1.0000
  O   O33       1.0  0.19183  0.26064  0.25155  1.0000
  H   H65       1.0  0.17420  0.31405  0.27388  1.0000
  H   H66       1.0  0.19907  0.27208  0.19094  1.0000
  O   O34       1.0  0.57113  0.61649  0.56799  1.0000
  H   H67       1.0  0.51287  0.63786  0.58499  1.0000
  H   H68       1.0  0.55986  0.57181  0.52520  1.0000
  O   O35       1.0  0.61747  0.29987  0.92928  1.0000
  H   H69       1.0  0.66129  0.25399  0.91782  1.0000
  H   H70       1.0  0.65315  0.33936  0.96431  1.0000
  O   O36       1.0  0.10251  0.64787  0.62307  1.0000
  H   H71       1.0  0.05698  0.68070  0.65386  1.0000
  H   H72       1.0  0.15414  0.67377  0.64548  1.0000
  O   O37       1.0  0.52510  0.98635  0.87787  1.0000
  H   H73       1.0  0.48187  0.95497  0.90831  1.0000
  H   H74       1.0  0.58034  0.96148  0.90089  1.0000
  O   O38       1.0  0.60323  0.91948  0.32635  1.0000
  H   H75       1.0  0.55236  0.95111  0.35304  1.0000
  H   H76       1.0  0.57811  0.89668  0.27080  1.0000
  O   O39       1.0  0.91704  0.48626  0.66613  1.0000
  H   H77       1.0  0.88321  0.54239  0.64677  1.0000
  H   H78       1.0  0.87594  0.44772  0.69136  1.0000
  O   O40       1.0  0.27651  0.71127  0.35249  1.0000
  H   H79       1.0  0.22277  0.70032  0.38579  1.0000
  H   H80       1.0  0.30848  0.74700  0.39218  1.0000
  O   O41       1.0  0.06206  0.15235  0.24832  1.0000
  H   H81       1.0  0.09141  0.09834  0.24961  1.0000
  H   H82       1.0  0.11396  0.19241  0.25117  1.0000
  O   O42       1.0  0.75587  0.78768  0.27398  1.0000
  H   H83       1.0  0.78996  0.78010  0.21923  1.0000
  H   H84       1.0  0.78179  0.84196  0.30159  1.0000
  O   O43       1.0  0.62488  0.09387  0.55618  1.0000
  H   H85       1.0  0.57809  0.05687  0.57420  1.0000
  H   H86       1.0  0.59119  0.13558  0.51948  1.0000
  O   O44       1.0  0.18560  0.32705  0.09793  1.0000
  H   H87       1.0  0.19978  0.29753  0.04022  1.0000
  H   H88       1.0  0.20356  0.38745  0.10354  1.0000
  O   O45       1.0  0.92922  0.92336  0.64376  1.0000
  H   H89       1.0  0.97263  0.97106  0.63592  1.0000
  H   H90       1.0  0.96077  0.87106  0.66425  1.0000
  O   O46       1.0  0.65572  0.50666  0.68372  1.0000
  H   H91       1.0  0.66068  0.45243  0.64759  1.0000
  H   H92       1.0  0.60777  0.54328  0.65875  1.0000
  O   O47       1.0  0.01051  0.80062  0.99163  1.0000
  H   H93       1.0  -0.03566  0.83251  1.02057  1.0000
  H   H94       1.0  -0.00355  0.73896  0.99495  1.0000
  O   O48       1.0  0.82094  0.58990  0.05584  1.0000
  H   H95       1.0  0.75854  0.58868  0.07264  1.0000
  H   H96       1.0  0.83495  0.60941  -0.00289  1.0000
  O   O49       1.0  0.85301  0.18012  0.21367  1.0000
  H   H97       1.0  0.83278  0.21791  0.26264  1.0000
  H   H98       1.0  0.91007  0.16278  0.23309  1.0000
  O   O50       1.0  0.56212  0.91414  0.72924  1.0000
  H   H99       1.0  0.55341  0.94766  0.78082  1.0000
  H   H100      1.0  0.51820  0.86920  0.73407  1.0000
  O   O51       1.0  0.85936  0.72766  0.14662  1.0000
  H   H101      1.0  0.85124  0.68393  0.10245  1.0000
  H   H102      1.0  0.91760  0.72225  0.16637  1.0000
  O   O52       1.0  0.20586  0.56095  0.05390  1.0000
  H   H103      1.0  0.23024  0.54187  0.11062  1.0000
  H   H104      1.0  0.24647  0.54275  0.00795  1.0000
  O   O53       1.0  0.06289  0.47453  0.57117  1.0000
  H   H105      1.0  0.08878  0.52346  0.60178  1.0000
  H   H106      1.0  0.01051  0.45446  0.60264  1.0000
  O   O54       1.0  0.52859  0.76384  0.11660  1.0000
  H   H107      1.0  0.47853  0.72797  0.13307  1.0000
  H   H108      1.0  0.52172  0.78121  0.05456  1.0000
  O   O55       1.0  0.63728  0.36464  0.31110  1.0000
  H   H109      1.0  0.63844  0.30849  0.27890  1.0000
  H   H110      1.0  0.62611  0.40578  0.27132  1.0000
  O   O56       1.0  0.04256  0.59767  0.00089  1.0000
  H   H111      1.0  0.00930  0.57327  0.05207  1.0000
  H   H112      1.0  0.10212  0.58519  0.02266  1.0000
  O   O57       1.0  0.67898  0.90629  0.92263  1.0000
  H   H113      1.0  0.72826  0.92002  0.95908  1.0000
  H   H114      1.0  0.68749  0.84866  0.89585  1.0000
  O   O58       1.0  0.48793  0.77244  0.36406  1.0000
  H   H115      1.0  0.53321  0.81458  0.36676  1.0000
  H   H116      1.0  0.45818  0.79466  0.30856  1.0000
  O   O59       1.0  0.83976  0.54677  0.41823  1.0000
  H   H117      1.0  0.81236  0.58293  0.46189  1.0000
  H   H118      1.0  0.81882  0.48643  0.43276  1.0000
  O   O60       1.0  0.04603  0.81412  0.29420  1.0000
  H   H119      1.0  -0.00952  0.84106  0.29052  1.0000
  H   H120      1.0  0.04900  0.79797  0.35544  1.0000
  O   O61       1.0  0.76299  0.39091  0.45688  1.0000
  H   H121      1.0  0.71278  0.39560  0.41069  1.0000
  H   H122      1.0  0.79656  0.33820  0.43923  1.0000
  O   O62       1.0  0.15122  0.70673  0.89365  1.0000
  H   H123      1.0  0.12754  0.73464  0.94526  1.0000
  H   H124      1.0  0.11723  0.65669  0.87733  1.0000
  O   O63       1.0  0.47191  0.27371  0.11756  1.0000
  H   H125      1.0  0.45341  0.33307  0.10458  1.0000
  H   H126      1.0  0.50108  0.25315  0.06424  1.0000
  O   O64       1.0  0.52526  0.48175  0.91139  1.0000
  H   H127      1.0  0.48638  0.47648  0.95988  1.0000
  H   H128      1.0  0.53577  0.42477  0.88751  1.0000
  O   O65       1.0  0.81376  0.35454  0.72252  1.0000
  H   H129      1.0  0.84220  0.30552  0.75088  1.0000
  H   H130      1.0  0.76418  0.33345  0.68841  1.0000
  O   O66       1.0  0.02374  0.09763  0.94672  1.0000
  H   H131      1.0  0.03474  0.04295  0.91618  1.0000
  H   H132      1.0  0.04109  0.14533  0.90952  1.0000
  O   O67       1.0  0.61483  0.21415  0.21608  1.0000
  H   H133      1.0  0.55914  0.23414  0.18864  1.0000
  H   H134      1.0  0.62139  0.15535  0.19447  1.0000
  O   O68       1.0  0.03164  0.21756  0.66126  1.0000
  H   H135      1.0  0.01914  0.16351  0.63222  1.0000
  H   H136      1.0  0.06383  0.25493  0.62093  1.0000
  O   O69       1.0  0.01323  0.34884  0.04666  1.0000
  H   H137      1.0  -0.01433  0.39705  0.07142  1.0000
  H   H138      1.0  0.07127  0.33904  0.07314  1.0000
  O   O70       1.0  0.83214  0.62756  0.88519  1.0000
  H   H139      1.0  0.82686  0.56746  0.86685  1.0000
  H   H140      1.0  0.88100  0.65179  0.85175  1.0000
  O   O71       1.0  0.01809  0.51648  0.41061  1.0000
  H   H141      1.0  0.03187  0.50027  0.47321  1.0000
  H   H142      1.0  -0.04428  0.51318  0.40444  1.0000
  O   O72       1.0  0.83203  0.24701  0.36573  1.0000
  H   H143      1.0  0.89760  0.24526  0.36368  1.0000
  H   H144      1.0  0.80969  0.19196  0.38913  1.0000
  O   O73       1.0  0.82133  0.08377  0.80814  1.0000
  H   H145      1.0  0.80603  0.08147  0.74554  1.0000
  H   H146      1.0  0.82943  0.02190  0.82101  1.0000
  O   O74       1.0  0.25527  0.47991  0.20012  1.0000
  H   H147      1.0  0.20438  0.46933  0.24327  1.0000
  H   H148      1.0  0.30121  0.50268  0.23840  1.0000
  O   O75       1.0  0.98959  0.59844  0.76783  1.0000
  H   H149      1.0  1.03282  0.56423  0.79869  1.0000
  H   H150      1.0  0.96496  0.54893  0.73792  1.0000
  O   O76       1.0  0.18735  0.00419  0.25962  1.0000
  H   H151      1.0  0.21427  -0.00843  0.20280  1.0000
  H   H152      1.0  0.16286  -0.05012  0.27811  1.0000
  O   O77       1.0  0.61126  0.45698  0.16340  1.0000
  H   H153      1.0  0.65428  0.41353  0.15487  1.0000
  H   H154      1.0  0.62635  0.51118  0.13498  1.0000
  O   O78       1.0  0.36500  0.25048  0.26777  1.0000
  H   H155      1.0  0.30280  0.25160  0.26297  1.0000
  H   H156      1.0  0.38188  0.25962  0.20587  1.0000
  O   O79       1.0  0.00134  0.63766  0.23073  1.0000
  H   H157      1.0  0.04090  0.68718  0.23980  1.0000
  H   H158      1.0  0.00553  0.59931  0.28391  1.0000
  O   O80       1.0  0.46699  0.00815  0.61601  1.0000
  H   H159      1.0  0.43811  0.05956  0.64328  1.0000
  H   H160      1.0  0.50179  -0.02359  0.65946  1.0000
  O   O81       1.0  0.12696  0.23009  0.85082  1.0000
  H   H161      1.0  0.14420  0.22328  0.79049  1.0000
  H   H162      1.0  0.09954  0.28661  0.85630  1.0000
  O   O82       1.0  0.90055  0.02503  0.08827  1.0000
  H   H163      1.0  0.94992  0.03806  0.05338  1.0000
  H   H164      1.0  0.87943  0.07845  0.11355  1.0000
  O   O83       1.0  0.45033  0.45896  0.74145  1.0000
  H   H165      1.0  0.40734  0.50294  0.73200  1.0000
  H   H166      1.0  0.46618  0.46428  0.80215  1.0000
  O   O84       1.0  0.79477  0.60848  0.61410  1.0000
  H   H167      1.0  0.74255  0.58225  0.63318  1.0000
  H   H168      1.0  0.78263  0.66675  0.59963  1.0000
  O   O85       1.0  0.72666  0.16438  0.95344  1.0000
  H   H169      1.0  0.75710  0.12107  0.91631  1.0000
  H   H170      1.0  0.77038  0.19654  0.98161  1.0000
  O   O86       1.0  0.79187  0.45538  0.85553  1.0000
  H   H171      1.0  0.81002  0.41269  0.80992  1.0000
  H   H172      1.0  0.73212  0.46771  0.84648  1.0000
  O   O87       1.0  0.65984  0.62543  0.11834  1.0000
  H   H173      1.0  0.66025  0.62620  0.18059  1.0000
  H   H174      1.0  0.60349  0.65557  0.10838  1.0000
  O   O88       1.0  0.53025  0.66000  0.88086  1.0000
  H   H175      1.0  0.54211  0.59605  0.88818  1.0000
  H   H176      1.0  0.58386  0.68671  0.86040  1.0000
  O   O89       1.0  0.44893  0.87183  0.22753  1.0000
  H   H177      1.0  0.47562  0.84094  0.17994  1.0000
  H   H178      1.0  0.38702  0.87373  0.21157  1.0000
  O   O90       1.0  0.12563  0.63902  0.44132  1.0000
  H   H179      1.0  0.14145  0.64027  0.50186  1.0000
  H   H180      1.0  0.08381  0.59261  0.43565  1.0000
  O   O91       1.0  0.38278  0.13517  0.69612  1.0000
  H   H181      1.0  0.37206  0.14258  0.75913  1.0000
  H   H182      1.0  0.39400  0.19634  0.66996  1.0000
  O   O92       1.0  0.35812  0.77332  0.48693  1.0000
  H   H183      1.0  0.41432  0.77469  0.45523  1.0000
  H   H184      1.0  0.33947  0.82647  0.51013  1.0000
  O   O93       1.0  0.12775  0.50822  0.83316  1.0000
  H   H185      1.0  0.15142  0.48039  0.77744  1.0000
  H   H186      1.0  0.08385  0.46334  0.84711  1.0000
  O   O94       1.0  0.51771  0.99091  0.06163  1.0000
  H   H187      1.0  0.56685  1.01970  0.09584  1.0000
  H   H188      1.0  0.54370  0.97118  0.01058  1.0000
  O   O95       1.0  0.35230  0.54505  0.35487  1.0000
  H   H189      1.0  0.32672  0.60032  0.36958  1.0000
  H   H190      1.0  0.41224  0.55480  0.34753  1.0000
  O   O96       1.0  0.90918  0.24534  0.80733  1.0000
  H   H191      1.0  0.95163  0.23651  0.76503  1.0000
  H   H192      1.0  0.88763  0.18435  0.81269  1.0000
  O   O97       1.0  0.65608  0.05442  0.14481  1.0000
  H   H193      1.0  0.69641  0.06646  0.09535  1.0000
  H   H194      1.0  0.66158  -0.00697  0.15504  1.0000
  O   O98       1.0  0.27352  0.50830  0.58474  1.0000
  H   H195      1.0  0.32140  0.54688  0.58755  1.0000
  H   H196      1.0  0.25752  0.48139  0.52932  1.0000
  O   O99       1.0  0.13950  0.43767  0.31402  1.0000
  H   H197      1.0  0.09374  0.47152  0.34234  1.0000
  H   H198      1.0  0.17716  0.40817  0.36093  1.0000
  O   O100      1.0  0.30718  0.93117  0.53396  1.0000
  H   H199      1.0  0.36745  0.94995  0.54010  1.0000
  H   H200      1.0  0.28840  0.95461  0.47732  1.0000
  O   O101      1.0  0.94919  0.06127  0.41660  1.0000
  H   H201      1.0  0.89122  0.08454  0.42837  1.0000
  H   H202      1.0  0.94589  0.03363  0.35932  1.0000
  O   O102      1.0  0.38416  0.66589  0.62046  1.0000
  H   H203      1.0  0.38235  0.71444  0.58002  1.0000
  H   H204      1.0  0.33291  0.68645  0.65469  1.0000
  O   O103      1.0  0.86217  0.91649  0.82093  1.0000
  H   H205      1.0  0.85579  0.88950  0.87517  1.0000
  H   H206      1.0  0.91724  0.89841  0.79455  1.0000
  O   O104      1.0  0.29703  0.10474  0.37231  1.0000
  H   H207      1.0  0.34801  0.06211  0.36762  1.0000
  H   H208      1.0  0.25042  0.07564  0.33705  1.0000
  O   O105      1.0  0.44506  0.00127  0.36645  1.0000
  H   H209      1.0  0.47455  0.06102  0.36083  1.0000
  H   H210      1.0  0.42814  -0.00762  0.30602  1.0000
  O   O106      1.0  0.79324  0.09819  0.64175  1.0000
  H   H211      1.0  0.73330  0.09957  0.62110  1.0000
  H   H212      1.0  0.82717  0.05997  0.60360  1.0000
  O   O107      1.0  0.43862  0.80429  0.75082  1.0000
  H   H213      1.0  0.43074  0.75047  0.71989  1.0000
  H   H214      1.0  0.39410  0.85075  0.74246  1.0000
  O   O108      1.0  0.43699  0.45383  0.09212  1.0000
  H   H215      1.0  0.39111  0.49516  0.10121  1.0000
  H   H216      1.0  0.48611  0.47494  0.12537  1.0000
  O   O109      1.0  0.66335  0.87495  0.14736  1.0000
  H   H217      1.0  0.68411  0.84582  0.20047  1.0000
  H   H218      1.0  0.62174  0.83715  0.12051  1.0000
  O   O110      1.0  0.27088  0.21594  0.51457  1.0000
  H   H219      1.0  0.29289  0.19336  0.45797  1.0000
  H   H220      1.0  0.21129  0.23395  0.50602  1.0000
  O   O111      1.0  0.68450  0.60347  0.30084  1.0000
  H   H221      1.0  0.68819  0.65884  0.32770  1.0000
  H   H222      1.0  0.73740  0.57172  0.32464  1.0000
  O   O112      1.0  0.75700  0.09669  0.42519  1.0000
  H   H223      1.0  0.74933  0.05111  0.38427  1.0000
  H   H224      1.0  0.70778  0.09654  0.46797  1.0000
  O   O113      1.0  0.10602  0.84550  0.78056  1.0000
  H   H225      1.0  0.14515  0.79973  0.80953  1.0000
  H   H226      1.0  0.11922  0.86713  0.72184  1.0000
  O   O114      1.0  0.34313  0.04621  0.13818  1.0000
  H   H227      1.0  0.33704  0.10540  0.13373  1.0000
  H   H228      1.0  0.39643  0.03345  0.11037  1.0000
  O   O115      1.0  0.72261  0.85758  0.69917  1.0000
  H   H229      1.0  0.66641  0.88917  0.70672  1.0000
  H   H230      1.0  0.76586  0.88849  0.73867  1.0000
  O   O116      1.0  0.02363  0.79822  0.47685  1.0000
  H   H231      1.0  -0.03380  0.82354  0.47990  1.0000
  H   H232      1.0  0.02036  0.73392  0.47712  1.0000
  O   O117      1.0  0.30080  0.48886  0.89425  1.0000
  H   H233      1.0  0.23973  0.49394  0.88030  1.0000
  H   H234      1.0  0.31246  0.42965  0.87480  1.0000
  O   O118      1.0  0.03173  0.05314  0.60079  1.0000
  H   H235      1.0  0.09651  0.05337  0.61166  1.0000
  H   H236      1.0  0.02023  0.02999  0.54271  1.0000
  O   O119      1.0  0.95541  0.50104  0.12882  1.0000
  H   H237      1.0  0.97068  0.55067  0.16811  1.0000
  H   H238      1.0  0.89959  0.51284  0.09960  1.0000
  O   O120      1.0  0.25801  0.73382  0.71999  1.0000
  H   H239      1.0  0.28678  0.70601  0.77175  1.0000
  H   H240      1.0  0.24014  0.79444  0.72855  1.0000
  O   O121      1.0  0.23615  0.20060  0.98717  1.0000
  H   H241      1.0  0.21901  0.14896  1.02217  1.0000
  H   H242      1.0  0.19075  0.20469  0.94198  1.0000
  O   O122      1.0  0.77649  0.94733  0.34218  1.0000
  H   H243      1.0  0.71659  0.94645  0.32829  1.0000
  H   H244      1.0  0.78057  0.93832  0.40524  1.0000
  O   O123      1.0  0.30904  0.79444  0.97049  1.0000
  H   H245      1.0  0.28743  0.84893  0.94584  1.0000
  H   H246      1.0  0.30755  0.75363  0.92231  1.0000
  O   O124      1.0  0.84442  0.84898  0.49417  1.0000
  H   H247      1.0  0.86306  0.86927  0.55393  1.0000
  H   H248      1.0  0.79806  0.80395  0.50313  1.0000
  O   O125      1.0  0.12145  0.93171  0.93608  1.0000
  H   H249      1.0  0.09222  0.89167  0.97095  1.0000
  H   H250      1.0  0.11050  0.90729  0.88004  1.0000
