data_image0
_chemical_formula_structural       OH2OH2OH2OH2OH2OH2OH2OH2OH2OH2OH2OH2OH2OH2OH2OH2OH2OH2OH2OH2OH2OH2OH2OH2OH2OH2OH2OH2OH2OH2OH2OH2OH2OH2OH2OH2OH2OH2OH2OH2OH2OH2OH2OH2OH2OH2OH2OH2OH2OH2OH2OH2OH2OH2OH2OH2OH2OH2OH2OH2OH2OH2OH2OH2OH2OH2OH2OH2OH2OH2OH2OH2OH2OH2OH2OH2OH2OH2OH2OH2OH2OH2OH2OH2OH2OH2OH2OH2OH2OH2OH2OH2OH2OH2OH2OH2OH2OH2OH2OH2OH2OH2OH2OH2OH2OH2OH2OH2OH2OH2OH2OH2OH2OH2OH2OH2OH2OH2OH2OH2OH2OH2OH2OH2OH2
_chemical_formula_sum              "O125 H250"
_cell_length_a       15.536
_cell_length_b       15.536
_cell_length_c       15.536
_cell_angle_alpha    90
_cell_angle_beta     90
_cell_angle_gamma    90

_space_group_name_H-M_alt    "P 1"
_space_group_IT_number       1

loop_
  _space_group_symop_operation_xyz
  'x, y, z'

loop_
  _atom_site_type_symbol
  _atom_site_label
  _atom_site_symmetry_multiplicity
  _atom_site_fract_x
  _atom_site_fract_y
  _atom_site_fract_z
  _atom_site_occupancy
  O   O1        1.0  0.12964  0.09957  0.09597  1.0000
  H   H1        1.0  0.10235  0.10990  0.15295  1.0000
  H   H2        1.0  0.08871  0.11185  0.04679  1.0000
  O   O2        1.0  0.50465  0.16721  0.95205  1.0000
  H   H3        1.0  0.54770  0.21138  0.93571  1.0000
  H   H4        1.0  0.52861  0.11024  0.93961  1.0000
  O   O3        1.0  0.20298  0.39609  0.69669  1.0000
  H   H5        1.0  0.23590  0.43328  0.66103  1.0000
  H   H6        1.0  0.24947  0.36954  0.72989  1.0000
  O   O4        1.0  0.29133  0.97187  0.91165  1.0000
  H   H7        1.0  0.22784  0.96753  0.93248  1.0000
  H   H8        1.0  0.30532  1.02328  0.93881  1.0000
  O   O5        1.0  0.51147  0.61313  0.32015  1.0000
  H   H9        1.0  0.57793  0.60207  0.31787  1.0000
  H   H10       1.0  0.50105  0.67549  0.34156  1.0000
  O   O6        1.0  0.10608  0.31977  0.51790  1.0000
  H   H11       1.0  0.09374  0.38066  0.53124  1.0000
  H   H12       1.0  0.07424  0.29993  0.46662  1.0000
  O   O7        1.0  0.27070  0.40958  0.45182  1.0000
  H   H13       1.0  0.28835  0.35111  0.44792  1.0000
  H   H14       1.0  0.31867  0.44674  0.41871  1.0000
  O   O8        1.0  0.38770  0.67067  0.17130  1.0000
  H   H15       1.0  0.41935  0.65846  0.22155  1.0000
  H   H16       1.0  0.34751  0.72708  0.17947  1.0000
  O   O9        1.0  0.35841  0.17463  0.86901  1.0000
  H   H17       1.0  0.31052  0.17487  0.91074  1.0000
  H   H18       1.0  0.41521  0.16771  0.89758  1.0000
  O   O10       1.0  0.87942  0.22132  0.53834  1.0000
  H   H19       1.0  0.93494  0.22891  0.56897  1.0000
  H   H20       1.0  0.85157  0.17343  0.56948  1.0000
  O   O11       1.0  0.94131  0.94585  0.26271  1.0000
  H   H21       1.0  0.87950  0.94580  0.27114  1.0000
  H   H22       1.0  0.95125  0.96374  0.20146  1.0000
  O   O12       1.0  0.48822  0.82206  0.95551  1.0000
  H   H23       1.0  0.42540  0.81960  0.96112  1.0000
  H   H24       1.0  0.50542  0.76661  0.92826  1.0000
  O   O13       1.0  0.40496  0.30376  0.59251  1.0000
  H   H25       1.0  0.34979  0.28081  0.56538  1.0000
  H   H26       1.0  0.40223  0.36478  0.60368  1.0000
  O   O14       1.0  0.84511  0.87924  0.01643  1.0000
  H   H27       1.0  0.84000  0.84417  0.06736  1.0000
  H   H28       1.0  0.87596  0.93152  0.03935  1.0000
  O   O15       1.0  0.64917  0.36342  0.58066  1.0000
  H   H29       1.0  0.70315  0.37119  0.54151  1.0000
  H   H30       1.0  0.61258  0.31731  0.54817  1.0000
  O   O16       1.0  0.28221  0.80024  0.20529  1.0000
  H   H31       1.0  0.24220  0.76836  0.16435  1.0000
  H   H32       1.0  0.27739  0.76021  0.25537  1.0000
  O   O17       1.0  0.54489  0.47695  0.48233  1.0000
  H   H33       1.0  0.58275  0.43694  0.50768  1.0000
  H   H34       1.0  0.53627  0.46633  0.42452  1.0000
  O   O18       1.0  0.69662  0.75695  0.54888  1.0000
  H   H35       1.0  0.69436  0.78468  0.60172  1.0000
  H   H36       1.0  0.64049  0.72599  0.54469  1.0000
  O   O19       1.0  0.02307  0.37129  0.87342  1.0000
  H   H37       1.0  0.01178  0.35991  0.93699  1.0000
  H   H38       1.0  -0.02476  0.33961  0.84372  1.0000
  O   O20       1.0  0.84147  0.26099  0.06220  1.0000
  H   H39       1.0  0.90339  0.27619  0.06070  1.0000
  H   H40       1.0  0.83150  0.22887  0.11562  1.0000
  O   O21       1.0  0.68389  0.74838  0.83635  1.0000
  H   H41       1.0  0.73705  0.71520  0.84957  1.0000
  H   H42       1.0  0.69429  0.78695  0.78385  1.0000
  O   O22       1.0  0.20446  0.04357  0.61785  1.0000
  H   H43       1.0  0.23520  0.01094  0.57358  1.0000
  H   H44       1.0  0.24090  0.09385  0.62285  1.0000
  O   O23       1.0  0.35220  0.65643  0.86077  1.0000
  H   H45       1.0  0.41543  0.66092  0.85666  1.0000
  H   H46       1.0  0.33310  0.59925  0.87434  1.0000
  O   O24       1.0  0.01106  0.23543  0.40073  1.0000
  H   H47       1.0  -0.03661  0.20423  0.42460  1.0000
  H   H48       1.0  0.01651  0.21877  0.34058  1.0000
  O   O25       1.0  0.98557  0.76030  0.70867  1.0000
  H   H49       1.0  0.99326  0.70290  0.74151  1.0000
  H   H50       1.0  1.02217  0.79968  0.74142  1.0000
  O   O26       1.0  0.50400  0.16255  0.34915  1.0000
  H   H51       1.0  0.45833  0.19883  0.32614  1.0000
  H   H52       1.0  0.55584  0.16700  0.31722  1.0000
  O   O27       1.0  0.29199  0.91276  0.73575  1.0000
  H   H53       1.0  0.27428  0.92921  0.79518  1.0000
  H   H54       1.0  0.26404  0.95869  0.70211  1.0000
  O   O28       1.0  0.14568  0.86274  0.60475  1.0000
  H   H55       1.0  0.09428  0.85335  0.56381  1.0000
  H   H56       1.0  0.18538  0.89958  0.57377  1.0000
  O   O29       1.0  0.73705  0.39822  0.02774  1.0000
  H   H57       1.0  0.77022  0.34586  0.04823  1.0000
  H   H58       1.0  0.76473  0.42473  -0.02074  1.0000
  O   O30       1.0  0.18515  0.73927  0.07238  1.0000
  H   H59       1.0  0.22287  0.76913  0.02755  1.0000
  H   H60       1.0  0.20753  0.67696  0.06866  1.0000
  O   O31       1.0  0.32513  0.33584  0.79996  1.0000
  H   H61       1.0  0.32615  0.28357  0.83600  1.0000
  H   H62       1.0  0.38609  0.35842  0.79536  1.0000
  O   O32       1.0  0.54691  0.24377  0.51657  1.0000
  H   H63       1.0  0.49627  0.26431  0.54540  1.0000
  H   H64       1.0  0.52828  0.22186  0.45883  1.0000
  O   O33       1.0  0.19290  0.26269  0.26708  1.0000
  H   H65       1.0  0.19722  0.30190  0.31257  1.0000
  H   H66       1.0  0.17920  0.29564  0.21781  1.0000
  O   O34       1.0  0.57062  0.63535  0.57885  1.0000
  H   H67       1.0  0.50865  0.64028  0.60034  1.0000
  H   H68       1.0  0.57271  0.58654  0.53655  1.0000
  O   O35       1.0  0.61810  0.30497  0.93971  1.0000
  H   H69       1.0  0.66184  0.25748  0.93922  1.0000
  H   H70       1.0  0.65311  0.34627  0.97384  1.0000
  O   O36       1.0  0.11716  0.65031  0.62597  1.0000
  H   H71       1.0  0.06693  0.68279  0.63992  1.0000
  H   H72       1.0  0.16602  0.66005  0.66523  1.0000
  O   O37       1.0  0.54567  0.00237  0.88509  1.0000
  H   H73       1.0  0.49678  -0.03415  0.90475  1.0000
  H   H74       1.0  0.60111  -0.02474  0.90044  1.0000
  O   O38       1.0  0.60266  0.91847  0.32286  1.0000
  H   H75       1.0  0.55232  0.95109  0.34828  1.0000
  H   H76       1.0  0.60046  0.93216  0.26275  1.0000
  O   O39       1.0  0.90865  0.47830  0.64956  1.0000
  H   H77       1.0  0.86444  0.52282  0.63606  1.0000
  H   H78       1.0  0.87428  0.42560  0.65626  1.0000
  O   O40       1.0  0.25854  0.69559  0.35574  1.0000
  H   H79       1.0  0.19916  0.69259  0.37267  1.0000
  H   H80       1.0  0.28375  0.72659  0.40526  1.0000
  O   O41       1.0  0.05036  0.16409  0.24220  1.0000
  H   H81       1.0  0.05410  0.11954  0.28299  1.0000
  H   H82       1.0  0.10076  0.20016  0.25097  1.0000
  O   O42       1.0  0.73620  0.77688  0.26220  1.0000
  H   H83       1.0  0.79417  0.76370  0.23385  1.0000
  H   H84       1.0  0.74917  0.81605  0.30806  1.0000
  O   O43       1.0  0.61582  0.08323  0.53824  1.0000
  H   H85       1.0  0.55620  0.05630  0.53615  1.0000
  H   H86       1.0  0.59699  0.14136  0.54519  1.0000
  O   O44       1.0  0.19299  0.34690  0.08699  1.0000
  H   H87       1.0  0.22695  0.29231  0.07413  1.0000
  H   H88       1.0  0.23088  0.38368  0.11989  1.0000
  O   O45       1.0  0.92477  0.91730  0.65599  1.0000
  H   H89       1.0  0.96609  0.96635  0.64821  1.0000
  H   H90       1.0  0.94914  0.86052  0.64719  1.0000
  O   O46       1.0  0.66600  0.50641  0.69213  1.0000
  H   H91       1.0  0.65548  0.45490  0.65202  1.0000
  H   H92       1.0  0.62852  0.55547  0.67074  1.0000
  O   O47       1.0  0.01219  0.78080  0.98049  1.0000
  H   H93       1.0  -0.04799  0.79891  0.98482  1.0000
  H   H94       1.0  0.02556  0.74132  1.02536  1.0000
  O   O48       1.0  0.83036  0.59634  0.05119  1.0000
  H   H95       1.0  0.76836  0.59395  0.07195  1.0000
  H   H96       1.0  0.83062  0.61913  -0.00668  1.0000
  O   O49       1.0  0.84665  0.16056  0.19983  1.0000
  H   H97       1.0  0.82924  0.19384  0.25240  1.0000
  H   H98       1.0  0.90839  0.14910  0.20021  1.0000
  O   O50       1.0  0.56087  0.92064  0.72404  1.0000
  H   H99       1.0  0.55484  0.96555  0.76831  1.0000
  H   H100      1.0  0.51855  0.87387  0.74650  1.0000
  O   O51       1.0  0.86090  0.74558  0.14559  1.0000
  H   H101      1.0  0.86183  0.71355  0.09384  1.0000
  H   H102      1.0  0.90980  0.70869  0.17582  1.0000
  O   O52       1.0  0.20363  0.55485  0.05759  1.0000
  H   H103      1.0  0.22232  0.53090  0.11194  1.0000
  H   H104      1.0  0.24317  0.52350  0.01761  1.0000
  O   O53       1.0  0.06876  0.48273  0.57165  1.0000
  H   H105      1.0  0.11112  0.52736  0.58673  1.0000
  H   H106      1.0  0.02405  0.48107  0.61532  1.0000
  O   O54       1.0  0.53220  0.76028  0.11669  1.0000
  H   H107      1.0  0.48197  0.72122  0.12579  1.0000
  H   H108      1.0  0.52991  0.77905  0.05291  1.0000
  O   O55       1.0  0.64340  0.36361  0.31057  1.0000
  H   H109      1.0  0.65012  0.30542  0.28668  1.0000
  H   H110      1.0  0.63021  0.39618  0.26003  1.0000
  O   O56       1.0  0.02815  0.61185  0.00009  1.0000
  H   H111      1.0  0.00310  0.56548  0.03668  1.0000
  H   H112      1.0  0.09143  0.60176  0.01518  1.0000
  O   O57       1.0  0.67622  0.88738  0.93654  1.0000
  H   H113      1.0  0.73321  0.88645  0.96804  1.0000
  H   H114      1.0  0.66768  0.83242  0.90158  1.0000
  O   O58       1.0  0.47479  0.77318  0.35910  1.0000
  H   H115      1.0  0.52820  0.79012  0.38264  1.0000
  H   H116      1.0  0.46235  0.80266  0.30267  1.0000
  O   O59       1.0  0.82660  0.53922  0.39946  1.0000
  H   H117      1.0  0.81930  0.57646  0.45124  1.0000
  H   H118      1.0  0.80818  0.47992  0.40507  1.0000
  O   O60       1.0  0.03864  0.79680  0.29230  1.0000
  H   H119      1.0  0.02789  0.85553  0.26878  1.0000
  H   H120      1.0  0.02705  0.79950  0.35223  1.0000
  O   O61       1.0  0.76488  0.38640  0.45828  1.0000
  H   H121      1.0  0.73103  0.36599  0.40683  1.0000
  H   H122      1.0  0.81449  0.34206  0.46172  1.0000
  O   O62       1.0  0.14770  0.71263  0.87461  1.0000
  H   H123      1.0  0.09839  0.72086  0.91442  1.0000
  H   H124      1.0  0.17693  0.65762  0.88930  1.0000
  O   O63       1.0  0.46670  0.25610  0.11367  1.0000
  H   H125      1.0  0.44570  0.31421  0.10006  1.0000
  H   H126      1.0  0.44406  0.21560  0.07052  1.0000
  O   O64       1.0  0.52539  0.47962  0.91087  1.0000
  H   H127      1.0  0.48165  0.46901  0.95292  1.0000
  H   H128      1.0  0.57183  0.43702  0.92352  1.0000
  O   O65       1.0  0.80987  0.34768  0.71576  1.0000
  H   H129      1.0  0.85374  0.30106  0.73959  1.0000
  H   H130      1.0  0.75750  0.31758  0.69604  1.0000
  O   O66       1.0  0.02802  0.11215  0.94944  1.0000
  H   H131      1.0  0.04856  0.05483  0.93565  1.0000
  H   H132      1.0  0.05636  0.15827  0.91627  1.0000
  O   O67       1.0  0.61727  0.21799  0.21561  1.0000
  H   H133      1.0  0.56478  0.23398  0.17769  1.0000
  H   H134      1.0  0.63862  0.16193  0.19836  1.0000
  O   O68       1.0  0.02182  0.21812  0.65959  1.0000
  H   H135      1.0  0.03612  0.15851  0.63849  1.0000
  H   H136      1.0  0.06274  0.25906  0.63609  1.0000
  O   O69       1.0  0.00963  0.34101  0.05319  1.0000
  H   H137      1.0  0.00264  0.39440  0.08214  1.0000
  H   H138      1.0  0.06696  0.31911  0.06493  1.0000
  O   O70       1.0  0.83368  0.64382  0.88928  1.0000
  H   H139      1.0  0.81884  0.58285  0.89308  1.0000
  H   H140      1.0  0.89479  0.64399  0.87738  1.0000
  O   O71       1.0  0.99814  0.51184  0.41711  1.0000
  H   H141      1.0  1.01358  0.48738  0.47962  1.0000
  H   H142      1.0  0.93306  0.51443  0.41998  1.0000
  O   O72       1.0  0.82501  0.25546  0.35722  1.0000
  H   H143      1.0  0.88370  0.25812  0.37945  1.0000
  H   H144      1.0  0.78645  0.22227  0.39337  1.0000
  O   O73       1.0  0.82731  0.07977  0.82700  1.0000
  H   H145      1.0  0.80762  0.08597  0.76672  1.0000
  H   H146      1.0  0.82371  0.01702  0.83215  1.0000
  O   O74       1.0  0.24939  0.48819  0.20626  1.0000
  H   H147      1.0  0.20235  0.46995  0.24664  1.0000
  H   H148      1.0  0.29989  0.49789  0.24405  1.0000
  O   O75       1.0  0.98153  0.59324  0.77245  1.0000
  H   H149      1.0  1.03361  0.55663  0.77739  1.0000
  H   H150      1.0  0.95096  0.56185  0.72970  1.0000
  O   O76       1.0  0.18441  0.01075  0.26440  1.0000
  H   H151      1.0  0.21332  0.03689  0.21746  1.0000
  H   H152      1.0  0.18550  -0.05034  0.25552  1.0000
  O   O77       1.0  0.61040  0.46040  0.15338  1.0000
  H   H153      1.0  0.64593  0.44062  0.10890  1.0000
  H   H154      1.0  0.61707  0.51992  0.15271  1.0000
  O   O78       1.0  0.37273  0.25844  0.27060  1.0000
  H   H155      1.0  0.31587  0.23293  0.27753  1.0000
  H   H156      1.0  0.38795  0.25473  0.20592  1.0000
  O   O79       1.0  0.00693  0.64067  0.22369  1.0000
  H   H157      1.0  0.00835  0.70209  0.24016  1.0000
  H   H158      1.0  0.02998  0.60710  0.26954  1.0000
  O   O80       1.0  0.46928  0.01215  0.60288  1.0000
  H   H159      1.0  0.44106  0.05522  0.64048  1.0000
  H   H160      1.0  0.50503  -0.02275  0.63632  1.0000
  O   O81       1.0  0.11781  0.22732  0.85071  1.0000
  H   H161      1.0  0.11314  0.22639  0.78331  1.0000
  H   H162      1.0  0.09288  0.28389  0.87030  1.0000
  O   O82       1.0  0.90250  0.02955  0.09684  1.0000
  H   H163      1.0  0.91637  0.06388  0.04565  1.0000
  H   H164      1.0  0.85775  0.06411  0.12557  1.0000
  O   O83       1.0  0.44275  0.45870  0.75654  1.0000
  H   H165      1.0  0.43715  0.51381  0.73066  1.0000
  H   H166      1.0  0.47219  0.47350  0.80987  1.0000
  O   O84       1.0  0.79151  0.59878  0.59264  1.0000
  H   H167      1.0  0.74948  0.57764  0.63208  1.0000
  H   H168      1.0  0.77577  0.65637  0.57763  1.0000
  O   O85       1.0  0.72671  0.16636  0.95019  1.0000
  H   H169      1.0  0.74677  0.12411  0.91108  1.0000
  H   H170      1.0  0.77709  0.19008  0.97639  1.0000
  O   O86       1.0  0.79114  0.46144  0.85202  1.0000
  H   H171      1.0  0.81077  0.40904  0.81874  1.0000
  H   H172      1.0  0.75665  0.49497  0.80978  1.0000
  O   O87       1.0  0.67871  0.63408  0.11995  1.0000
  H   H173      1.0  0.68417  0.62518  0.18152  1.0000
  H   H174      1.0  0.64973  0.69139  0.11472  1.0000
  O   O88       1.0  0.53370  0.67216  0.87307  1.0000
  H   H175      1.0  0.53973  0.60795  0.88973  1.0000
  H   H176      1.0  0.59089  0.69259  0.85520  1.0000
  O   O89       1.0  0.44479  0.88138  0.22069  1.0000
  H   H177      1.0  0.48389  0.85298  0.18046  1.0000
  H   H178      1.0  0.38575  0.85821  0.21128  1.0000
  O   O90       1.0  0.11704  0.64836  0.44183  1.0000
  H   H179      1.0  0.12515  0.65284  0.50535  1.0000
  H   H180      1.0  0.07023  0.60469  0.43414  1.0000
  O   O91       1.0  0.38421  0.13448  0.70470  1.0000
  H   H181      1.0  0.36130  0.15104  0.76444  1.0000
  H   H182      1.0  0.39547  0.18930  0.67739  1.0000
  O   O92       1.0  0.35349  0.76191  0.48946  1.0000
  H   H183      1.0  0.39455  0.76399  0.43802  1.0000
  H   H184      1.0  0.34450  0.82097  0.50571  1.0000
  O   O93       1.0  0.14065  0.50351  0.82969  1.0000
  H   H185      1.0  0.14581  0.47722  0.76869  1.0000
  H   H186      1.0  0.09422  0.47479  0.86054  1.0000
  O   O94       1.0  0.51360  0.97900  0.06948  1.0000
  H   H187      1.0  0.55926  1.02055  0.08355  1.0000
  H   H188      1.0  0.53584  0.93467  0.03080  1.0000
  O   O95       1.0  0.35466  0.54084  0.36349  1.0000
  H   H189      1.0  0.31593  0.58988  0.35354  1.0000
  H   H190      1.0  0.41197  0.56389  0.35054  1.0000
  O   O96       1.0  0.91593  0.24004  0.80379  1.0000
  H   H191      1.0  0.95409  0.23150  0.75906  1.0000
  H   H192      1.0  0.89885  0.18171  0.82002  1.0000
  O   O97       1.0  0.65570  0.05320  0.14584  1.0000
  H   H193      1.0  0.68392  0.07738  0.09759  1.0000
  H   H194      1.0  0.67040  -0.00744  0.14178  1.0000
  O   O98       1.0  0.27493  0.51397  0.58940  1.0000
  H   H195      1.0  0.31612  0.56420  0.59529  1.0000
  H   H196      1.0  0.27396  0.48436  0.53059  1.0000
  O   O99       1.0  0.13539  0.43399  0.33325  1.0000
  H   H197      1.0  0.08227  0.45995  0.35481  1.0000
  H   H198      1.0  0.17591  0.43572  0.38396  1.0000
  O   O100      1.0  0.31352  0.94200  0.53304  1.0000
  H   H199      1.0  0.35898  0.93899  0.57673  1.0000
  H   H200      1.0  0.34163  0.96812  0.48261  1.0000
  O   O101      1.0  0.94045  0.04314  0.44074  1.0000
  H   H201      1.0  0.87770  0.05412  0.44386  1.0000
  H   H202      1.0  0.95096  -0.00029  0.39527  1.0000
  O   O102      1.0  0.38692  0.65550  0.63053  1.0000
  H   H203      1.0  0.38180  0.69844  0.58429  1.0000
  H   H204      1.0  0.34262  0.68068  0.67031  1.0000
  O   O103      1.0  0.85389  0.89573  0.82687  1.0000
  H   H205      1.0  0.89556  0.86852  0.86546  1.0000
  H   H206      1.0  0.88941  0.89451  0.77549  1.0000
  O   O104      1.0  0.29884  0.09014  0.36528  1.0000
  H   H207      1.0  0.35221  0.05102  0.37300  1.0000
  H   H208      1.0  0.25536  0.05307  0.33276  1.0000
  O   O105      1.0  0.43957  0.99099  0.36855  1.0000
  H   H209      1.0  0.47074  1.04747  0.35876  1.0000
  H   H210      1.0  0.43321  0.96025  0.31446  1.0000
  O   O106      1.0  0.80367  0.10546  0.62954  1.0000
  H   H211      1.0  0.74613  0.09897  0.60501  1.0000
  H   H212      1.0  0.84213  0.05229  0.63354  1.0000
  O   O107      1.0  0.43286  0.80619  0.75872  1.0000
  H   H213      1.0  0.42145  0.75202  0.72555  1.0000
  H   H214      1.0  0.38298  0.84894  0.76177  1.0000
  O   O108      1.0  0.42678  0.44305  0.09004  1.0000
  H   H215      1.0  0.39415  0.49180  0.11327  1.0000
  H   H216      1.0  0.48432  0.45103  0.10973  1.0000
  O   O109      1.0  0.67821  0.87958  0.14521  1.0000
  H   H217      1.0  0.70280  0.83383  0.18376  1.0000
  H   H218      1.0  0.63003  0.85240  0.11747  1.0000
  O   O110      1.0  0.25764  0.22244  0.51154  1.0000
  H   H219      1.0  0.25102  0.18315  0.46026  1.0000
  H   H220      1.0  0.20337  0.24976  0.52507  1.0000
  O   O111      1.0  0.69846  0.62148  0.31103  1.0000
  H   H221      1.0  0.71376  0.68578  0.30923  1.0000
  H   H222      1.0  0.74523  0.59698  0.34577  1.0000
  O   O112      1.0  0.76339  0.09498  0.43301  1.0000
  H   H223      1.0  0.76545  0.03810  0.40547  1.0000
  H   H224      1.0  0.70932  0.09304  0.46743  1.0000
  O   O113      1.0  0.11136  0.85961  0.78184  1.0000
  H   H225      1.0  0.13998  0.81356  0.81243  1.0000
  H   H226      1.0  0.12960  0.86045  0.71973  1.0000
  O   O114      1.0  0.35003  0.04432  0.13710  1.0000
  H   H227      1.0  0.32930  0.07800  0.08979  1.0000
  H   H228      1.0  0.40000  0.01469  0.11612  1.0000
  O   O115      1.0  0.72643  0.85498  0.69725  1.0000
  H   H229      1.0  0.67970  0.89722  0.70770  1.0000
  H   H230      1.0  0.78213  0.85922  0.73358  1.0000
  O   O116      1.0  0.01679  0.80761  0.47413  1.0000
  H   H231      1.0  -0.04591  0.80545  0.48376  1.0000
  H   H232      1.0  0.04166  0.75248  0.45593  1.0000
  O   O117      1.0  0.29783  0.49034  0.88930  1.0000
  H   H233      1.0  0.24127  0.49653  0.85565  1.0000
  H   H234      1.0  0.32324  0.43792  0.86519  1.0000
  O   O118      1.0  0.02642  0.04868  0.59315  1.0000
  H   H235      1.0  0.08828  0.03958  0.58481  1.0000
  H   H236      1.0  -0.00548  0.06008  0.53984  1.0000
  O   O119      1.0  0.96064  0.50631  0.11724  1.0000
  H   H237      1.0  0.99036  0.54880  0.15700  1.0000
  H   H238      1.0  0.90533  0.53326  0.09829  1.0000
  O   O120      1.0  0.26180  0.73579  0.72586  1.0000
  H   H239      1.0  0.28522  0.71698  0.78332  1.0000
  H   H240      1.0  0.27615  0.80089  0.71921  1.0000
  O   O121      1.0  0.23265  0.18958  0.98787  1.0000
  H   H241      1.0  0.19056  0.15698  1.02128  1.0000
  H   H242      1.0  0.19864  0.21275  0.93919  1.0000
  O   O122      1.0  0.77453  0.94523  0.34397  1.0000
  H   H243      1.0  0.71169  0.94105  0.34107  1.0000
  H   H244      1.0  0.79863  0.91037  0.38742  1.0000
  O   O123      1.0  0.32251  0.79426  0.97186  1.0000
  H   H245      1.0  0.31487  0.84442  0.93503  1.0000
  H   H246      1.0  0.33651  0.74552  0.93618  1.0000
  O   O124      1.0  0.84743  0.87127  0.50481  1.0000
  H   H247      1.0  0.87272  0.90905  0.55524  1.0000
  H   H248      1.0  0.80041  0.83890  0.53037  1.0000
  O   O125      1.0  0.12493  0.93859  0.93375  1.0000
  H   H249      1.0  0.09788  0.89134  0.96413  1.0000
  H   H250      1.0  0.10471  0.92829  0.87432  1.0000
