data_image0
_chemical_formula_structural       OH2OH2OH2OH2OH2OH2OH2OH2OH2OH2OH2OH2OH2OH2OH2OH2OH2OH2OH2OH2OH2OH2OH2OH2OH2OH2OH2OH2OH2OH2OH2OH2OH2OH2OH2OH2OH2OH2OH2OH2OH2OH2OH2OH2OH2OH2OH2OH2OH2OH2OH2OH2OH2OH2OH2OH2OH2OH2OH2OH2OH2OH2OH2OH2OH2OH2OH2OH2OH2OH2OH2OH2OH2OH2OH2OH2OH2OH2OH2OH2OH2OH2OH2OH2OH2OH2OH2OH2OH2OH2OH2OH2OH2OH2OH2OH2OH2OH2OH2OH2OH2OH2OH2OH2OH2OH2OH2OH2OH2OH2OH2OH2OH2OH2OH2OH2OH2OH2OH2OH2OH2OH2OH2OH2OH2
_chemical_formula_sum              "O125 H250"
_cell_length_a       15.536
_cell_length_b       15.536
_cell_length_c       15.536
_cell_angle_alpha    90
_cell_angle_beta     90
_cell_angle_gamma    90

_space_group_name_H-M_alt    "P 1"
_space_group_IT_number       1

loop_
  _space_group_symop_operation_xyz
  'x, y, z'

loop_
  _atom_site_type_symbol
  _atom_site_label
  _atom_site_symmetry_multiplicity
  _atom_site_fract_x
  _atom_site_fract_y
  _atom_site_fract_z
  _atom_site_occupancy
  O   O1        1.0  0.11812  0.12822  0.10975  1.0000
  H   H1        1.0  0.08220  0.15049  0.15846  1.0000
  H   H2        1.0  0.07951  0.11287  0.05729  1.0000
  O   O2        1.0  0.50818  0.16403  0.95768  1.0000
  H   H3        1.0  0.53301  0.20962  0.92387  1.0000
  H   H4        1.0  0.54008  0.11305  0.96879  1.0000
  O   O3        1.0  0.19995  0.39631  0.70414  1.0000
  H   H5        1.0  0.23247  0.42639  0.66053  1.0000
  H   H6        1.0  0.24469  0.36819  0.73764  1.0000
  O   O4        1.0  0.29733  0.96071  0.92466  1.0000
  H   H7        1.0  0.23375  0.95240  0.93548  1.0000
  H   H8        1.0  0.31061  1.01951  0.89990  1.0000
  O   O5        1.0  0.52073  0.62155  0.30600  1.0000
  H   H9        1.0  0.58632  0.62161  0.31639  1.0000
  H   H10       1.0  0.50108  0.67761  0.33057  1.0000
  O   O6        1.0  0.09448  0.31619  0.54114  1.0000
  H   H11       1.0  0.10371  0.37774  0.54902  1.0000
  H   H12       1.0  0.07809  0.30345  0.48236  1.0000
  O   O7        1.0  0.27366  0.41232  0.45619  1.0000
  H   H13       1.0  0.28159  0.34995  0.43570  1.0000
  H   H14       1.0  0.32798  0.43622  0.42699  1.0000
  O   O8        1.0  0.40527  0.65644  0.14737  1.0000
  H   H15       1.0  0.39940  0.62897  0.20563  1.0000
  H   H16       1.0  0.35035  0.68454  0.13234  1.0000
  O   O9        1.0  0.34703  0.15123  0.87037  1.0000
  H   H17       1.0  0.31283  0.14680  0.92258  1.0000
  H   H18       1.0  0.40548  0.16208  0.88972  1.0000
  O   O10       1.0  0.86838  0.25059  0.53513  1.0000
  H   H19       1.0  0.92472  0.23875  0.55793  1.0000
  H   H20       1.0  0.84830  0.19193  0.55013  1.0000
  O   O11       1.0  0.95372  0.95023  0.25681  1.0000
  H   H21       1.0  0.90025  0.94482  0.28913  1.0000
  H   H22       1.0  0.95320  0.98836  0.20845  1.0000
  O   O12       1.0  0.50034  0.83323  0.95682  1.0000
  H   H23       1.0  0.43996  0.81885  0.95805  1.0000
  H   H24       1.0  0.53104  0.78386  0.92586  1.0000
  O   O13       1.0  0.39118  0.29645  0.58343  1.0000
  H   H25       1.0  0.33819  0.27920  0.54975  1.0000
  H   H26       1.0  0.37250  0.35725  0.59731  1.0000
  O   O14       1.0  0.84727  0.87928  0.01502  1.0000
  H   H27       1.0  0.85662  0.84215  0.06409  1.0000
  H   H28       1.0  0.86137  0.93759  0.04357  1.0000
  O   O15       1.0  0.65287  0.37337  0.58706  1.0000
  H   H29       1.0  0.69721  0.37752  0.54338  1.0000
  H   H30       1.0  0.61665  0.32740  0.56433  1.0000
  O   O16       1.0  0.26534  0.80478  0.23327  1.0000
  H   H31       1.0  0.22109  0.78584  0.19085  1.0000
  H   H32       1.0  0.26891  0.75927  0.27624  1.0000
  O   O17       1.0  0.54776  0.48831  0.50348  1.0000
  H   H33       1.0  0.58139  0.44844  0.53993  1.0000
  H   H34       1.0  0.57505  0.48114  0.44756  1.0000
  O   O18       1.0  0.70828  0.76009  0.54832  1.0000
  H   H35       1.0  0.70584  0.78460  0.60508  1.0000
  H   H36       1.0  0.64934  0.74850  0.53182  1.0000
  O   O19       1.0  0.00833  0.36682  0.87994  1.0000
  H   H37       1.0  0.00016  0.35713  0.94330  1.0000
  H   H38       1.0  -0.03424  0.32326  0.85701  1.0000
  O   O20       1.0  0.83760  0.27709  0.06561  1.0000
  H   H39       1.0  0.89820  0.29930  0.06187  1.0000
  H   H40       1.0  0.83524  0.25320  0.12310  1.0000
  O   O21       1.0  0.69608  0.73547  0.83955  1.0000
  H   H41       1.0  0.75089  0.70303  0.84246  1.0000
  H   H42       1.0  0.70686  0.78013  0.79164  1.0000
  O   O22       1.0  0.22100  0.04495  0.62642  1.0000
  H   H43       1.0  0.25107  -0.00003  0.59401  1.0000
  H   H44       1.0  0.26707  0.08729  0.63615  1.0000
  O   O23       1.0  0.35159  0.65638  0.84919  1.0000
  H   H45       1.0  0.41283  0.65391  0.84615  1.0000
  H   H46       1.0  0.33527  0.60079  0.87907  1.0000
  O   O24       1.0  0.00281  0.22283  0.40221  1.0000
  H   H47       1.0  -0.03247  0.19156  0.44383  1.0000
  H   H48       1.0  -0.00075  0.19443  0.34576  1.0000
  O   O25       1.0  0.00189  0.74853  0.70498  1.0000
  H   H49       1.0  -0.01145  0.69063  0.73492  1.0000
  H   H50       1.0  0.04101  0.79151  0.72869  1.0000
  O   O26       1.0  0.50026  0.15753  0.37046  1.0000
  H   H51       1.0  0.45120  0.19267  0.35011  1.0000
  H   H52       1.0  0.55001  0.16641  0.32958  1.0000
  O   O27       1.0  0.28719  0.90465  0.73091  1.0000
  H   H53       1.0  0.27809  0.90546  0.79242  1.0000
  H   H54       1.0  0.27174  0.95760  0.70220  1.0000
  O   O28       1.0  0.12832  0.86641  0.59798  1.0000
  H   H55       1.0  0.08291  0.86095  0.54992  1.0000
  H   H56       1.0  0.17360  0.82497  0.57627  1.0000
  O   O29       1.0  0.73218  0.42217  0.02671  1.0000
  H   H57       1.0  0.76626  0.36950  0.04357  1.0000
  H   H58       1.0  0.76296  0.44274  -0.02319  1.0000
  O   O30       1.0  0.18284  0.75797  0.07587  1.0000
  H   H59       1.0  0.23715  0.76166  0.03649  1.0000
  H   H60       1.0  0.15535  0.70274  0.06828  1.0000
  O   O31       1.0  0.32853  0.33380  0.81670  1.0000
  H   H61       1.0  0.33128  0.27762  0.84757  1.0000
  H   H62       1.0  0.38831  0.35447  0.80718  1.0000
  O   O32       1.0  0.54917  0.22927  0.52241  1.0000
  H   H63       1.0  0.50057  0.24830  0.55514  1.0000
  H   H64       1.0  0.52203  0.21101  0.46694  1.0000
  O   O33       1.0  0.16534  0.27198  0.27140  1.0000
  H   H65       1.0  0.14785  0.32775  0.29415  1.0000
  H   H66       1.0  0.19071  0.27929  0.21563  1.0000
  O   O34       1.0  0.56738  0.63531  0.59839  1.0000
  H   H67       1.0  0.50927  0.65285  0.61863  1.0000
  H   H68       1.0  0.55280  0.58507  0.55898  1.0000
  O   O35       1.0  0.62046  0.31056  0.94983  1.0000
  H   H69       1.0  0.65817  0.25781  0.94277  1.0000
  H   H70       1.0  0.64984  0.35402  0.98303  1.0000
  O   O36       1.0  0.13920  0.65904  0.62298  1.0000
  H   H71       1.0  0.10100  0.70560  0.63663  1.0000
  H   H72       1.0  0.18697  0.66367  0.66592  1.0000
  O   O37       1.0  0.58823  0.00960  0.87549  1.0000
  H   H73       1.0  0.53877  -0.02468  0.89226  1.0000
  H   H74       1.0  0.63050  -0.03089  0.90328  1.0000
  O   O38       1.0  0.59857  0.92449  0.33795  1.0000
  H   H75       1.0  0.53822  0.94378  0.35093  1.0000
  H   H76       1.0  0.60643  0.89410  0.28243  1.0000
  O   O39       1.0  0.90123  0.46571  0.61913  1.0000
  H   H77       1.0  0.86682  0.51560  0.59675  1.0000
  H   H78       1.0  0.86180  0.41295  0.62793  1.0000
  O   O40       1.0  0.24675  0.67414  0.36355  1.0000
  H   H79       1.0  0.18825  0.67321  0.38257  1.0000
  H   H80       1.0  0.27835  0.70467  0.41005  1.0000
  O   O41       1.0  0.03213  0.16334  0.24872  1.0000
  H   H81       1.0  0.06183  0.11161  0.26422  1.0000
  H   H82       1.0  0.07785  0.20807  0.26420  1.0000
  O   O42       1.0  0.74696  0.78994  0.26112  1.0000
  H   H83       1.0  0.79351  0.76759  0.22439  1.0000
  H   H84       1.0  0.76453  0.84556  0.28986  1.0000
  O   O43       1.0  0.61959  0.06966  0.51708  1.0000
  H   H85       1.0  0.56631  0.03480  0.52896  1.0000
  H   H86       1.0  0.60110  0.12671  0.52736  1.0000
  O   O44       1.0  0.19529  0.35030  0.08741  1.0000
  H   H87       1.0  0.22697  0.30571  0.05435  1.0000
  H   H88       1.0  0.23344  0.39564  0.10755  1.0000
  O   O45       1.0  0.92298  0.91347  0.66435  1.0000
  H   H89       1.0  0.97143  0.95584  0.65170  1.0000
  H   H90       1.0  0.94443  0.85875  0.64753  1.0000
  O   O46       1.0  0.68328  0.52405  0.69382  1.0000
  H   H91       1.0  0.65075  0.46970  0.67309  1.0000
  H   H92       1.0  0.64225  0.56805  0.67269  1.0000
  O   O47       1.0  0.00135  0.79330  0.95424  1.0000
  H   H93       1.0  -0.04720  0.82555  0.98335  1.0000
  H   H94       1.0  0.00499  0.74197  0.98786  1.0000
  O   O48       1.0  0.83461  0.60207  0.05199  1.0000
  H   H95       1.0  0.77809  0.61099  0.08350  1.0000
  H   H96       1.0  0.81596  0.62398  -0.00351  1.0000
  O   O49       1.0  0.85067  0.14537  0.20162  1.0000
  H   H97       1.0  0.81958  0.18023  0.24475  1.0000
  H   H98       1.0  0.90709  0.13559  0.23102  1.0000
  O   O50       1.0  0.56996  0.93954  0.71910  1.0000
  H   H99       1.0  0.58038  0.98738  0.76271  1.0000
  H   H100      1.0  0.53535  0.89520  0.74860  1.0000
  O   O51       1.0  0.87972  0.76085  0.14791  1.0000
  H   H101      1.0  0.88682  0.70168  0.12223  1.0000
  H   H102      1.0  0.92866  0.77593  0.18315  1.0000
  O   O52       1.0  0.20020  0.55958  0.03661  1.0000
  H   H103      1.0  0.22179  0.52756  0.08612  1.0000
  H   H104      1.0  0.23174  0.53599  -0.01427  1.0000
  O   O53       1.0  0.06320  0.49230  0.57258  1.0000
  H   H105      1.0  0.08826  0.53967  0.60415  1.0000
  H   H106      1.0  0.00555  0.48633  0.59721  1.0000
  O   O54       1.0  0.54999  0.75525  0.10424  1.0000
  H   H107      1.0  0.50579  0.71778  0.12905  1.0000
  H   H108      1.0  0.52159  0.78344  0.05651  1.0000
  O   O55       1.0  0.65346  0.37567  0.31763  1.0000
  H   H109      1.0  0.66131  0.32382  0.28386  1.0000
  H   H110      1.0  0.62733  0.41460  0.27394  1.0000
  O   O56       1.0  0.03739  0.61426  0.98787  1.0000
  H   H111      1.0  0.00605  0.56483  1.01492  1.0000
  H   H112      1.0  0.10231  0.60313  0.99028  1.0000
  O   O57       1.0  0.68538  0.87885  0.96404  1.0000
  H   H113      1.0  0.74791  0.88635  0.97658  1.0000
  H   H114      1.0  0.68082  0.82150  0.93316  1.0000
  O   O58       1.0  0.46867  0.78867  0.35725  1.0000
  H   H115      1.0  0.52137  0.82354  0.37154  1.0000
  H   H116      1.0  0.44720  0.81904  0.30378  1.0000
  O   O59       1.0  0.81215  0.53945  0.39899  1.0000
  H   H117      1.0  0.79128  0.56859  0.45166  1.0000
  H   H118      1.0  0.79890  0.48079  0.41709  1.0000
  O   O60       1.0  0.03085  0.79907  0.30093  1.0000
  H   H119      1.0  0.03500  0.86061  0.27892  1.0000
  H   H120      1.0  0.05153  0.79313  0.36398  1.0000
  O   O61       1.0  0.76824  0.37862  0.45818  1.0000
  H   H121      1.0  0.73549  0.37688  0.40261  1.0000
  H   H122      1.0  0.80947  0.32769  0.45059  1.0000
  O   O62       1.0  0.13612  0.71714  0.85329  1.0000
  H   H123      1.0  0.09585  0.73656  0.90255  1.0000
  H   H124      1.0  0.12393  0.65590  0.86276  1.0000
  O   O63       1.0  0.46105  0.23983  0.11123  1.0000
  H   H125      1.0  0.45604  0.29879  0.08564  1.0000
  H   H126      1.0  0.46797  0.20476  0.05912  1.0000
  O   O64       1.0  0.52630  0.47211  0.92729  1.0000
  H   H127      1.0  0.50184  0.46420  0.98353  1.0000
  H   H128      1.0  0.55944  0.41589  0.91868  1.0000
  O   O65       1.0  0.80159  0.33584  0.70418  1.0000
  H   H129      1.0  0.83372  0.28494  0.72939  1.0000
  H   H130      1.0  0.75851  0.30779  0.66739  1.0000
  O   O66       1.0  0.02633  0.10523  0.96735  1.0000
  H   H131      1.0  0.04868  0.05109  0.94126  1.0000
  H   H132      1.0  0.04410  0.15008  0.92642  1.0000
  O   O67       1.0  0.60570  0.20801  0.21538  1.0000
  H   H133      1.0  0.55026  0.22112  0.18671  1.0000
  H   H134      1.0  0.63024  0.15484  0.18994  1.0000
  O   O68       1.0  0.01458  0.22225  0.64745  1.0000
  H   H135      1.0  0.04057  0.16261  0.63535  1.0000
  H   H136      1.0  0.04589  0.26540  0.61130  1.0000
  O   O69       1.0  0.00971  0.33855  0.05670  1.0000
  H   H137      1.0  -0.00634  0.39704  0.07650  1.0000
  H   H138      1.0  0.06853  0.33497  0.07085  1.0000
  O   O70       1.0  0.83430  0.65079  0.87336  1.0000
  H   H139      1.0  0.80566  0.59486  0.86808  1.0000
  H   H140      1.0  0.88686  0.63423  0.84699  1.0000
  O   O71       1.0  0.98278  0.51823  0.40759  1.0000
  H   H141      1.0  1.00017  0.49342  0.46879  1.0000
  H   H142      1.0  0.91845  0.50895  0.39991  1.0000
  O   O72       1.0  0.82283  0.23946  0.33675  1.0000
  H   H143      1.0  0.87746  0.24782  0.36064  1.0000
  H   H144      1.0  0.79263  0.20839  0.38429  1.0000
  O   O73       1.0  0.83076  0.07338  0.83852  1.0000
  H   H145      1.0  0.82065  0.07233  0.77507  1.0000
  H   H146      1.0  0.82236  0.01330  0.85645  1.0000
  O   O74       1.0  0.25381  0.48820  0.22803  1.0000
  H   H147      1.0  0.19843  0.46503  0.24547  1.0000
  H   H148      1.0  0.28970  0.49064  0.28158  1.0000
  O   O75       1.0  0.97394  0.59770  0.78863  1.0000
  H   H149      1.0  1.03139  0.58760  0.81412  1.0000
  H   H150      1.0  0.95681  0.56085  0.73763  1.0000
  O   O76       1.0  0.17528  0.02142  0.25119  1.0000
  H   H151      1.0  0.17661  0.03301  0.19002  1.0000
  H   H152      1.0  0.18679  -0.03906  0.25402  1.0000
  O   O77       1.0  0.60151  0.47318  0.12530  1.0000
  H   H153      1.0  0.65213  0.44562  0.10367  1.0000
  H   H154      1.0  0.62551  0.52607  0.13671  1.0000
  O   O78       1.0  0.39672  0.26997  0.27951  1.0000
  H   H155      1.0  0.33252  0.26992  0.28977  1.0000
  H   H156      1.0  0.40855  0.24068  0.22195  1.0000
  O   O79       1.0  0.00874  0.63004  0.21831  1.0000
  H   H157      1.0  0.02288  0.68284  0.25337  1.0000
  H   H158      1.0  -0.03300  0.60007  0.25754  1.0000
  O   O80       1.0  0.46999  0.01049  0.60006  1.0000
  H   H159      1.0  0.43649  0.05704  0.63004  1.0000
  H   H160      1.0  0.50697  -0.01347  0.64419  1.0000
  O   O81       1.0  0.11483  0.22626  0.85360  1.0000
  H   H161      1.0  0.12747  0.22493  0.79215  1.0000
  H   H162      1.0  0.08099  0.28164  0.86552  1.0000
  O   O82       1.0  0.90685  0.02412  0.08364  1.0000
  H   H163      1.0  0.95290  0.04446  0.04134  1.0000
  H   H164      1.0  0.88819  0.07671  0.11542  1.0000
  O   O83       1.0  0.44292  0.46048  0.76630  1.0000
  H   H165      1.0  0.40565  0.50735  0.74547  1.0000
  H   H166      1.0  0.47959  0.48098  0.81358  1.0000
  O   O84       1.0  0.77899  0.58333  0.55337  1.0000
  H   H167      1.0  0.73272  0.56378  0.59074  1.0000
  H   H168      1.0  0.77510  0.64768  0.55996  1.0000
  O   O85       1.0  0.73098  0.16717  0.95935  1.0000
  H   H169      1.0  0.74854  0.12390  0.92353  1.0000
  H   H170      1.0  0.78379  0.19397  0.97618  1.0000
  O   O86       1.0  0.76976  0.49089  0.85131  1.0000
  H   H171      1.0  0.81191  0.45989  0.81618  1.0000
  H   H172      1.0  0.73195  0.51452  0.80410  1.0000
  O   O87       1.0  0.67468  0.63628  0.14960  1.0000
  H   H173      1.0  0.68727  0.63128  0.21422  1.0000
  H   H174      1.0  0.64398  0.68936  0.13654  1.0000
  O   O88       1.0  0.53498  0.66142  0.86713  1.0000
  H   H175      1.0  0.54583  0.60533  0.89991  1.0000
  H   H176      1.0  0.59155  0.67877  0.85034  1.0000
  O   O89       1.0  0.41957  0.88478  0.22188  1.0000
  H   H177      1.0  0.43247  0.91496  0.16716  1.0000
  H   H178      1.0  0.35903  0.86689  0.22081  1.0000
  O   O90       1.0  0.07689  0.66037  0.45528  1.0000
  H   H179      1.0  0.10950  0.64750  0.50865  1.0000
  H   H180      1.0  0.04724  0.60358  0.44263  1.0000
  O   O91       1.0  0.38377  0.14072  0.68142  1.0000
  H   H181      1.0  0.37593  0.15529  0.74122  1.0000
  H   H182      1.0  0.39265  0.19695  0.64621  1.0000
  O   O92       1.0  0.35193  0.75553  0.48887  1.0000
  H   H183      1.0  0.39770  0.76483  0.44788  1.0000
  H   H184      1.0  0.34729  0.81396  0.51240  1.0000
  O   O93       1.0  0.12561  0.50833  0.82548  1.0000
  H   H185      1.0  0.15336  0.46566  0.78465  1.0000
  H   H186      1.0  0.08015  0.47445  0.85351  1.0000
  O   O94       1.0  0.49568  0.95667  0.08260  1.0000
  H   H187      1.0  0.55282  0.98540  0.09251  1.0000
  H   H188      1.0  0.50572  0.89669  0.06168  1.0000
  O   O95       1.0  0.34830  0.53782  0.36398  1.0000
  H   H189      1.0  0.30552  0.58572  0.37011  1.0000
  H   H190      1.0  0.40398  0.56381  0.35351  1.0000
  O   O96       1.0  0.92576  0.23023  0.79800  1.0000
  H   H191      1.0  0.95976  0.23307  0.74722  1.0000
  H   H192      1.0  0.91198  0.17137  0.80854  1.0000
  O   O97       1.0  0.65863  0.06280  0.12440  1.0000
  H   H193      1.0  0.69513  0.08985  0.08011  1.0000
  H   H194      1.0  0.67435  0.00293  0.12356  1.0000
  O   O98       1.0  0.27856  0.51887  0.60935  1.0000
  H   H195      1.0  0.31591  0.57155  0.60181  1.0000
  H   H196      1.0  0.27942  0.50245  0.54788  1.0000
  O   O99       1.0  0.12345  0.42744  0.35638  1.0000
  H   H197      1.0  0.07684  0.46639  0.36870  1.0000
  H   H198      1.0  0.17282  0.43145  0.39950  1.0000
  O   O100      1.0  0.33143  0.93834  0.51437  1.0000
  H   H199      1.0  0.38602  0.96760  0.54067  1.0000
  H   H200      1.0  0.31843  0.97849  0.46552  1.0000
  O   O101      1.0  0.93355  0.03009  0.45202  1.0000
  H   H201      1.0  0.87342  0.03093  0.43940  1.0000
  H   H202      1.0  0.96104  0.00459  0.40268  1.0000
  O   O102      1.0  0.40013  0.65329  0.63045  1.0000
  H   H203      1.0  0.39033  0.67643  0.57467  1.0000
  H   H204      1.0  0.34348  0.66046  0.66549  1.0000
  O   O103      1.0  0.83663  0.88639  0.82282  1.0000
  H   H205      1.0  0.85646  0.85004  0.87073  1.0000
  H   H206      1.0  0.87442  0.88213  0.77093  1.0000
  O   O104      1.0  0.28417  0.07723  0.38993  1.0000
  H   H207      1.0  0.34598  0.07536  0.38027  1.0000
  H   H208      1.0  0.24976  0.06329  0.33608  1.0000
  O   O105      1.0  0.44555  0.99125  0.36244  1.0000
  H   H209      1.0  0.46035  1.05170  0.34969  1.0000
  H   H210      1.0  0.42034  0.97271  0.30923  1.0000
  O   O106      1.0  0.79943  0.08677  0.64326  1.0000
  H   H211      1.0  0.74884  0.06436  0.61185  1.0000
  H   H212      1.0  0.83728  0.04219  0.62893  1.0000
  O   O107      1.0  0.44002  0.81675  0.75986  1.0000
  H   H213      1.0  0.44203  0.75686  0.73782  1.0000
  H   H214      1.0  0.39127  0.83213  0.72309  1.0000
  O   O108      1.0  0.44557  0.42204  0.08328  1.0000
  H   H215      1.0  0.40639  0.46178  0.11227  1.0000
  H   H216      1.0  0.50440  0.43875  0.09956  1.0000
  O   O109      1.0  0.68537  0.89609  0.13921  1.0000
  H   H217      1.0  0.70832  0.85021  0.17795  1.0000
  H   H218      1.0  0.68698  0.87365  0.07923  1.0000
  O   O110      1.0  0.25957  0.23671  0.50630  1.0000
  H   H219      1.0  0.23705  0.18867  0.47330  1.0000
  H   H220      1.0  0.21210  0.26102  0.53907  1.0000
  O   O111      1.0  0.68449  0.62064  0.31575  1.0000
  H   H221      1.0  0.71601  0.67450  0.31178  1.0000
  H   H222      1.0  0.73603  0.58617  0.33080  1.0000
  O   O112      1.0  0.77454  0.09587  0.44114  1.0000
  H   H223      1.0  0.75974  0.04924  0.39706  1.0000
  H   H224      1.0  0.72246  0.09859  0.47678  1.0000
  O   O113      1.0  0.10962  0.87381  0.77947  1.0000
  H   H225      1.0  0.12673  0.81467  0.79587  1.0000
  H   H226      1.0  0.13412  0.88704  0.72215  1.0000
  O   O114      1.0  0.35187  0.04537  0.13612  1.0000
  H   H227      1.0  0.31102  0.04247  0.08821  1.0000
  H   H228      1.0  0.40876  0.02721  0.11247  1.0000
  O   O115      1.0  0.71491  0.83711  0.69735  1.0000
  H   H229      1.0  0.67154  0.88345  0.71067  1.0000
  H   H230      1.0  0.76598  0.85584  0.73348  1.0000
  O   O116      1.0  0.02028  0.82280  0.47739  1.0000
  H   H231      1.0  -0.03703  0.84619  0.47722  1.0000
  H   H232      1.0  0.01228  0.76058  0.46921  1.0000
  O   O117      1.0  0.28916  0.49851  0.90431  1.0000
  H   H233      1.0  0.23592  0.48605  0.87630  1.0000
  H   H234      1.0  0.33012  0.45391  0.89255  1.0000
  O   O118      1.0  0.03540  0.05623  0.60609  1.0000
  H   H235      1.0  0.09542  0.04225  0.59519  1.0000
  H   H236      1.0  0.00349  0.04866  0.55004  1.0000
  O   O119      1.0  0.96091  0.49239  0.10986  1.0000
  H   H237      1.0  0.98883  0.53080  0.15254  1.0000
  H   H238      1.0  0.90733  0.52312  0.09491  1.0000
  O   O120      1.0  0.26698  0.71489  0.71599  1.0000
  H   H239      1.0  0.29394  0.70750  0.77263  1.0000
  H   H240      1.0  0.27559  0.77976  0.71624  1.0000
  O   O121      1.0  0.22281  0.19189  0.99247  1.0000
  H   H241      1.0  0.18778  0.15560  1.03306  1.0000
  H   H242      1.0  0.18129  0.20284  0.94478  1.0000
  O   O122      1.0  0.77572  0.91896  0.35399  1.0000
  H   H243      1.0  0.71046  0.92842  0.35389  1.0000
  H   H244      1.0  0.79199  0.90664  0.41419  1.0000
  O   O123      1.0  0.32434  0.79464  0.97414  1.0000
  H   H245      1.0  0.31521  0.85333  0.95333  1.0000
  H   H246      1.0  0.32905  0.76439  0.91912  1.0000
  O   O124      1.0  0.82854  0.87905  0.50699  1.0000
  H   H247      1.0  0.81747  0.90687  0.56468  1.0000
  H   H248      1.0  0.79024  0.82731  0.50905  1.0000
  O   O125      1.0  0.10724  0.95552  0.93859  1.0000
  H   H249      1.0  0.10674  0.90387  0.97520  1.0000
  H   H250      1.0  0.09620  0.93080  0.87878  1.0000
