data_image0
_chemical_formula_structural       OH2OH2OH2OH2OH2OH2OH2OH2OH2OH2OH2OH2OH2OH2OH2OH2OH2OH2OH2OH2OH2OH2OH2OH2OH2OH2OH2OH2OH2OH2OH2OH2OH2OH2OH2OH2OH2OH2OH2OH2OH2OH2OH2OH2OH2OH2OH2OH2OH2OH2OH2OH2OH2OH2OH2OH2OH2OH2OH2OH2OH2OH2OH2OH2OH2OH2OH2OH2OH2OH2OH2OH2OH2OH2OH2OH2OH2OH2OH2OH2OH2OH2OH2OH2OH2OH2OH2OH2OH2OH2OH2OH2OH2OH2OH2OH2OH2OH2OH2OH2OH2OH2OH2OH2OH2OH2OH2OH2OH2OH2OH2OH2OH2OH2OH2OH2OH2OH2OH2OH2OH2OH2OH2OH2OH2
_chemical_formula_sum              "O125 H250"
_cell_length_a       15.536
_cell_length_b       15.536
_cell_length_c       15.536
_cell_angle_alpha    90
_cell_angle_beta     90
_cell_angle_gamma    90

_space_group_name_H-M_alt    "P 1"
_space_group_IT_number       1

loop_
  _space_group_symop_operation_xyz
  'x, y, z'

loop_
  _atom_site_type_symbol
  _atom_site_label
  _atom_site_symmetry_multiplicity
  _atom_site_fract_x
  _atom_site_fract_y
  _atom_site_fract_z
  _atom_site_occupancy
  O   O1        1.0  0.12462  0.10961  0.09945  1.0000
  H   H1        1.0  0.10039  0.12749  0.15486  1.0000
  H   H2        1.0  0.08352  0.11896  0.05115  1.0000
  O   O2        1.0  0.50232  0.16086  0.94867  1.0000
  H   H3        1.0  0.53924  0.21000  0.96457  1.0000
  H   H4        1.0  0.53095  0.12307  0.90779  1.0000
  O   O3        1.0  0.19834  0.40067  0.70338  1.0000
  H   H5        1.0  0.23114  0.43524  0.66566  1.0000
  H   H6        1.0  0.24074  0.36935  0.73563  1.0000
  O   O4        1.0  0.29354  0.96426  0.91815  1.0000
  H   H7        1.0  0.23084  0.96211  0.93791  1.0000
  H   H8        1.0  0.30917  1.01979  0.93597  1.0000
  O   O5        1.0  0.51923  0.61667  0.31699  1.0000
  H   H9        1.0  0.58490  0.61843  0.33101  1.0000
  H   H10       1.0  0.49604  0.67653  0.32684  1.0000
  O   O6        1.0  0.10502  0.31889  0.52394  1.0000
  H   H11       1.0  0.10397  0.37839  0.54731  1.0000
  H   H12       1.0  0.05256  0.30128  0.49498  1.0000
  O   O7        1.0  0.26822  0.40825  0.44941  1.0000
  H   H13       1.0  0.29842  0.35542  0.44491  1.0000
  H   H14       1.0  0.29871  0.44709  0.39885  1.0000
  O   O8        1.0  0.39051  0.66806  0.15939  1.0000
  H   H15       1.0  0.44012  0.65870  0.19129  1.0000
  H   H16       1.0  0.34710  0.70391  0.19521  1.0000
  O   O9        1.0  0.35383  0.16921  0.87601  1.0000
  H   H17       1.0  0.30858  0.17965  0.92055  1.0000
  H   H18       1.0  0.41502  0.17510  0.90236  1.0000
  O   O10       1.0  0.87997  0.22864  0.53084  1.0000
  H   H19       1.0  0.91103  0.24720  0.58360  1.0000
  H   H20       1.0  0.84413  0.18747  0.55778  1.0000
  O   O11       1.0  0.94808  0.94723  0.26088  1.0000
  H   H21       1.0  0.88885  0.93331  0.26247  1.0000
  H   H22       1.0  0.96980  0.95824  0.20314  1.0000
  O   O12       1.0  0.49090  0.82060  0.95757  1.0000
  H   H23       1.0  0.42896  0.81070  0.97744  1.0000
  H   H24       1.0  0.49754  0.77873  0.91043  1.0000
  O   O13       1.0  0.40497  0.30292  0.58698  1.0000
  H   H25       1.0  0.34386  0.27918  0.57181  1.0000
  H   H26       1.0  0.39777  0.36338  0.60320  1.0000
  O   O14       1.0  0.84642  0.87842  0.01740  1.0000
  H   H27       1.0  0.82339  0.85017  0.06891  1.0000
  H   H28       1.0  0.86588  0.93498  0.04182  1.0000
  O   O15       1.0  0.64670  0.36217  0.58089  1.0000
  H   H29       1.0  0.68850  0.36223  0.53045  1.0000
  H   H30       1.0  0.60911  0.31160  0.56597  1.0000
  O   O16       1.0  0.28288  0.80059  0.21679  1.0000
  H   H31       1.0  0.24068  0.79390  0.16701  1.0000
  H   H32       1.0  0.24338  0.78493  0.26303  1.0000
  O   O17       1.0  0.54708  0.47999  0.48643  1.0000
  H   H33       1.0  0.58513  0.44198  0.51337  1.0000
  H   H34       1.0  0.51995  0.45587  0.44173  1.0000
  O   O18       1.0  0.69801  0.75754  0.54525  1.0000
  H   H35       1.0  0.70445  0.78981  0.59769  1.0000
  H   H36       1.0  0.64190  0.73214  0.54927  1.0000
  O   O19       1.0  0.01725  0.37105  0.87321  1.0000
  H   H37       1.0  0.00865  0.36745  0.94015  1.0000
  H   H38       1.0  -0.01934  0.32162  0.85383  1.0000
  O   O20       1.0  0.83966  0.26929  0.06383  1.0000
  H   H39       1.0  0.90098  0.28690  0.06655  1.0000
  H   H40       1.0  0.82649  0.23096  0.11381  1.0000
  O   O21       1.0  0.68878  0.74523  0.83641  1.0000
  H   H41       1.0  0.74037  0.71562  0.85807  1.0000
  H   H42       1.0  0.69795  0.76595  0.77586  1.0000
  O   O22       1.0  0.20979  0.04272  0.62085  1.0000
  H   H43       1.0  0.25157  0.01862  0.58004  1.0000
  H   H44       1.0  0.23378  0.09825  0.63634  1.0000
  O   O23       1.0  0.35571  0.65395  0.85763  1.0000
  H   H45       1.0  0.41517  0.66737  0.84149  1.0000
  H   H46       1.0  0.34568  0.59132  0.86812  1.0000
  O   O24       1.0  0.00799  0.22956  0.40198  1.0000
  H   H47       1.0  -0.01548  0.18430  0.43705  1.0000
  H   H48       1.0  0.00939  0.20563  0.34383  1.0000
  O   O25       1.0  0.99658  0.76109  0.71104  1.0000
  H   H49       1.0  0.96736  0.70552  0.73125  1.0000
  H   H50       1.0  1.04341  0.78613  0.74947  1.0000
  O   O26       1.0  0.49857  0.16337  0.35711  1.0000
  H   H51       1.0  0.44545  0.19513  0.33882  1.0000
  H   H52       1.0  0.54547  0.17220  0.31882  1.0000
  O   O27       1.0  0.28907  0.90323  0.73409  1.0000
  H   H53       1.0  0.28420  0.94623  0.78160  1.0000
  H   H54       1.0  0.25878  0.92713  0.68396  1.0000
  O   O28       1.0  0.13833  0.86530  0.60302  1.0000
  H   H55       1.0  0.09843  0.85574  0.55149  1.0000
  H   H56       1.0  0.19721  0.87188  0.57687  1.0000
  O   O29       1.0  0.73606  0.40423  0.02725  1.0000
  H   H57       1.0  0.77595  0.35765  0.05181  1.0000
  H   H58       1.0  0.76300  0.43880  -0.01505  1.0000
  O   O30       1.0  0.17820  0.74485  0.07183  1.0000
  H   H59       1.0  0.23135  0.76292  0.03513  1.0000
  H   H60       1.0  0.17983  0.67984  0.07340  1.0000
  O   O31       1.0  0.32772  0.33257  0.80825  1.0000
  H   H61       1.0  0.35237  0.27410  0.81588  1.0000
  H   H62       1.0  0.36201  0.36967  0.76699  1.0000
  O   O32       1.0  0.54839  0.24018  0.52293  1.0000
  H   H63       1.0  0.49724  0.26199  0.55280  1.0000
  H   H64       1.0  0.52826  0.24085  0.46171  1.0000
  O   O33       1.0  0.18488  0.26741  0.27049  1.0000
  H   H65       1.0  0.20027  0.29726  0.32353  1.0000
  H   H66       1.0  0.17203  0.31009  0.23111  1.0000
  O   O34       1.0  0.56835  0.63920  0.58622  1.0000
  H   H67       1.0  0.50619  0.63312  0.60543  1.0000
  H   H68       1.0  0.57681  0.59573  0.53922  1.0000
  O   O35       1.0  0.62235  0.30762  0.94569  1.0000
  H   H69       1.0  0.65248  0.25621  0.92560  1.0000
  H   H70       1.0  0.66526  0.33923  0.98140  1.0000
  O   O36       1.0  0.12661  0.65328  0.62635  1.0000
  H   H71       1.0  0.08640  0.67360  0.66662  1.0000
  H   H72       1.0  0.18550  0.66440  0.64331  1.0000
  O   O37       1.0  0.55900  0.01023  0.88508  1.0000
  H   H73       1.0  0.51928  -0.03942  0.88946  1.0000
  H   H74       1.0  0.61857  -0.00638  0.90244  1.0000
  O   O38       1.0  0.60365  0.91945  0.32582  1.0000
  H   H75       1.0  0.55169  0.93839  0.35953  1.0000
  H   H76       1.0  0.59734  0.94830  0.27307  1.0000
  O   O39       1.0  0.90497  0.47384  0.63664  1.0000
  H   H77       1.0  0.86658  0.51715  0.60501  1.0000
  H   H78       1.0  0.86541  0.43841  0.67023  1.0000
  O   O40       1.0  0.25223  0.68742  0.35497  1.0000
  H   H79       1.0  0.20110  0.66500  0.38461  1.0000
  H   H80       1.0  0.28814  0.71188  0.40132  1.0000
  O   O41       1.0  0.04411  0.16683  0.24241  1.0000
  H   H81       1.0  0.05217  0.11035  0.26396  1.0000
  H   H82       1.0  0.09658  0.19956  0.25267  1.0000
  O   O42       1.0  0.73490  0.77327  0.26015  1.0000
  H   H83       1.0  0.78189  0.76631  0.21504  1.0000
  H   H84       1.0  0.74980  0.82181  0.29609  1.0000
  O   O43       1.0  0.61824  0.08057  0.52920  1.0000
  H   H85       1.0  0.56535  0.04447  0.54276  1.0000
  H   H86       1.0  0.59222  0.13732  0.52322  1.0000
  O   O44       1.0  0.19617  0.35214  0.08762  1.0000
  H   H87       1.0  0.21967  0.30175  0.05313  1.0000
  H   H88       1.0  0.24726  0.37123  0.11552  1.0000
  O   O45       1.0  0.91649  0.91385  0.66324  1.0000
  H   H89       1.0  0.96353  0.95485  0.64916  1.0000
  H   H90       1.0  0.93631  0.85594  0.67959  1.0000
  O   O46       1.0  0.67255  0.51368  0.69381  1.0000
  H   H91       1.0  0.66465  0.45563  0.66324  1.0000
  H   H92       1.0  0.61784  0.54552  0.68461  1.0000
  O   O47       1.0  0.01085  0.78234  0.97272  1.0000
  H   H93       1.0  -0.04051  0.79445  1.01021  1.0000
  H   H94       1.0  0.01960  0.72064  0.98018  1.0000
  O   O48       1.0  0.83095  0.59647  0.04865  1.0000
  H   H95       1.0  0.77055  0.61127  0.07082  1.0000
  H   H96       1.0  0.83108  0.61958  -0.00986  1.0000
  O   O49       1.0  0.84588  0.15183  0.19972  1.0000
  H   H97       1.0  0.81769  0.18408  0.24702  1.0000
  H   H98       1.0  0.91219  0.15617  0.20659  1.0000
  O   O50       1.0  0.56483  0.93052  0.72145  1.0000
  H   H99       1.0  0.56174  0.96000  0.77610  1.0000
  H   H100      1.0  0.52291  0.87910  0.72558  1.0000
  O   O51       1.0  0.86855  0.75598  0.14591  1.0000
  H   H101      1.0  0.83719  0.71193  0.11900  1.0000
  H   H102      1.0  0.91733  0.71674  0.17006  1.0000
  O   O52       1.0  0.20356  0.55511  0.05017  1.0000
  H   H103      1.0  0.21753  0.53319  0.10629  1.0000
  H   H104      1.0  0.24675  0.52119  0.01685  1.0000
  O   O53       1.0  0.06883  0.48781  0.57268  1.0000
  H   H105      1.0  0.10957  0.52056  0.60692  1.0000
  H   H106      1.0  0.01631  0.48813  0.60760  1.0000
  O   O54       1.0  0.53589  0.75929  0.11366  1.0000
  H   H107      1.0  0.48324  0.72285  0.11737  1.0000
  H   H108      1.0  0.53175  0.78312  0.05191  1.0000
  O   O55       1.0  0.64800  0.36894  0.31483  1.0000
  H   H109      1.0  0.63666  0.31836  0.28270  1.0000
  H   H110      1.0  0.65901  0.41119  0.27332  1.0000
  O   O56       1.0  0.02649  0.61344  0.99927  1.0000
  H   H111      1.0  -0.01723  0.59107  1.03848  1.0000
  H   H112      1.0  0.07728  0.57626  1.01288  1.0000
  O   O57       1.0  0.67634  0.88150  0.94739  1.0000
  H   H113      1.0  0.73419  0.89260  0.97564  1.0000
  H   H114      1.0  0.68182  0.83583  0.90078  1.0000
  O   O58       1.0  0.47045  0.77859  0.36028  1.0000
  H   H115      1.0  0.51986  0.81038  0.37880  1.0000
  H   H116      1.0  0.44084  0.80597  0.30930  1.0000
  O   O59       1.0  0.81886  0.53868  0.39650  1.0000
  H   H117      1.0  0.81427  0.55243  0.45928  1.0000
  H   H118      1.0  0.78927  0.48373  0.38294  1.0000
  O   O60       1.0  0.03547  0.79241  0.29419  1.0000
  H   H119      1.0  -0.00353  0.83402  0.26273  1.0000
  H   H120      1.0  0.03395  0.79929  0.35729  1.0000
  O   O61       1.0  0.76586  0.38662  0.45409  1.0000
  H   H121      1.0  0.75173  0.35582  0.40112  1.0000
  H   H122      1.0  0.82058  0.35025  0.46483  1.0000
  O   O62       1.0  0.14405  0.71565  0.86405  1.0000
  H   H123      1.0  0.09773  0.72076  0.90704  1.0000
  H   H124      1.0  0.17481  0.66263  0.88137  1.0000
  O   O63       1.0  0.46232  0.24819  0.11338  1.0000
  H   H125      1.0  0.44170  0.30323  0.08801  1.0000
  H   H126      1.0  0.45679  0.20595  0.06680  1.0000
  O   O64       1.0  0.52720  0.47978  0.91707  1.0000
  H   H127      1.0  0.48053  0.47017  0.95616  1.0000
  H   H128      1.0  0.56075  0.42405  0.91325  1.0000
  O   O65       1.0  0.80691  0.34263  0.71041  1.0000
  H   H129      1.0  0.83892  0.29342  0.74079  1.0000
  H   H130      1.0  0.75631  0.32166  0.67923  1.0000
  O   O66       1.0  0.03004  0.11449  0.95373  1.0000
  H   H131      1.0  0.05455  0.05760  0.95251  1.0000
  H   H132      1.0  0.04387  0.15034  0.90304  1.0000
  O   O67       1.0  0.61544  0.21390  0.21319  1.0000
  H   H133      1.0  0.56887  0.23654  0.17929  1.0000
  H   H134      1.0  0.63945  0.16100  0.18743  1.0000
  O   O68       1.0  0.01875  0.21897  0.65757  1.0000
  H   H135      1.0  0.01163  0.16340  0.62559  1.0000
  H   H136      1.0  0.05132  0.25889  0.62255  1.0000
  O   O69       1.0  0.00845  0.33766  0.05686  1.0000
  H   H137      1.0  -0.02101  0.39019  0.06970  1.0000
  H   H138      1.0  0.06661  0.35247  0.07187  1.0000
  O   O70       1.0  0.83565  0.64772  0.88787  1.0000
  H   H139      1.0  0.81394  0.59294  0.86482  1.0000
  H   H140      1.0  0.88692  0.65844  0.85498  1.0000
  O   O71       1.0  0.98981  0.51151  0.41480  1.0000
  H   H141      1.0  0.98467  0.50802  0.48126  1.0000
  H   H142      1.0  0.92665  0.50640  0.40515  1.0000
  O   O72       1.0  0.82314  0.25398  0.35038  1.0000
  H   H143      1.0  0.88383  0.26693  0.35812  1.0000
  H   H144      1.0  0.80479  0.20580  0.38993  1.0000
  O   O73       1.0  0.82880  0.07856  0.83419  1.0000
  H   H145      1.0  0.79250  0.08793  0.78269  1.0000
  H   H146      1.0  0.83441  0.01667  0.83058  1.0000
  O   O74       1.0  0.25060  0.48842  0.21527  1.0000
  H   H147      1.0  0.20820  0.47617  0.26121  1.0000
  H   H148      1.0  0.29955  0.51382  0.24674  1.0000
  O   O75       1.0  0.97853  0.59325  0.77768  1.0000
  H   H149      1.0  1.03360  0.57580  0.80923  1.0000
  H   H150      1.0  0.95037  0.54170  0.75889  1.0000
  O   O76       1.0  0.17977  0.01124  0.26154  1.0000
  H   H151      1.0  0.20123  0.05310  0.22120  1.0000
  H   H152      1.0  0.20942  -0.04068  0.24868  1.0000
  O   O77       1.0  0.60698  0.46254  0.14397  1.0000
  H   H153      1.0  0.65328  0.44335  0.10958  1.0000
  H   H154      1.0  0.62261  0.52307  0.15043  1.0000
  O   O78       1.0  0.38330  0.26186  0.27538  1.0000
  H   H155      1.0  0.33547  0.22227  0.26772  1.0000
  H   H156      1.0  0.42547  0.25478  0.22305  1.0000
  O   O79       1.0  0.00948  0.64441  0.22317  1.0000
  H   H157      1.0  0.04068  0.69877  0.24378  1.0000
  H   H158      1.0  0.01444  0.60125  0.26574  1.0000
  O   O80       1.0  0.46661  0.00970  0.59995  1.0000
  H   H159      1.0  0.43576  0.06004  0.62856  1.0000
  H   H160      1.0  0.50654  -0.01389  0.64291  1.0000
  O   O81       1.0  0.11462  0.22678  0.85302  1.0000
  H   H161      1.0  0.12581  0.21160  0.78921  1.0000
  H   H162      1.0  0.08829  0.28148  0.86107  1.0000
  O   O82       1.0  0.90290  0.02913  0.09436  1.0000
  H   H163      1.0  0.91262  0.07517  0.05351  1.0000
  H   H164      1.0  0.88240  0.06419  0.14305  1.0000
  O   O83       1.0  0.43921  0.45936  0.75939  1.0000
  H   H165      1.0  0.45994  0.51395  0.73738  1.0000
  H   H166      1.0  0.47126  0.45978  0.81343  1.0000
  O   O84       1.0  0.78922  0.59189  0.58101  1.0000
  H   H167      1.0  0.74163  0.57232  0.61559  1.0000
  H   H168      1.0  0.77041  0.64654  0.55797  1.0000
  O   O85       1.0  0.72692  0.16550  0.94981  1.0000
  H   H169      1.0  0.76718  0.12870  0.92023  1.0000
  H   H170      1.0  0.76228  0.20674  0.98007  1.0000
  O   O86       1.0  0.78627  0.47151  0.85181  1.0000
  H   H171      1.0  0.80815  0.41557  0.82819  1.0000
  H   H172      1.0  0.73399  0.48438  0.81562  1.0000
  O   O87       1.0  0.68198  0.63560  0.12888  1.0000
  H   H173      1.0  0.70466  0.63269  0.19017  1.0000
  H   H174      1.0  0.63865  0.68170  0.12052  1.0000
  O   O88       1.0  0.53088  0.67053  0.87148  1.0000
  H   H175      1.0  0.55420  0.61023  0.88177  1.0000
  H   H176      1.0  0.58020  0.70430  0.85554  1.0000
  O   O89       1.0  0.43820  0.88336  0.21852  1.0000
  H   H177      1.0  0.46753  0.87348  0.16377  1.0000
  H   H178      1.0  0.37839  0.86659  0.21000  1.0000
  O   O90       1.0  0.10486  0.65532  0.44426  1.0000
  H   H179      1.0  0.12799  0.65357  0.50357  1.0000
  H   H180      1.0  0.07221  0.60113  0.44495  1.0000
  O   O91       1.0  0.38402  0.13420  0.69684  1.0000
  H   H181      1.0  0.37601  0.13565  0.76108  1.0000
  H   H182      1.0  0.40136  0.19225  0.68106  1.0000
  O   O92       1.0  0.35262  0.75897  0.48802  1.0000
  H   H183      1.0  0.40562  0.75968  0.45451  1.0000
  H   H184      1.0  0.34446  0.81886  0.50199  1.0000
  O   O93       1.0  0.14159  0.50120  0.82044  1.0000
  H   H185      1.0  0.17543  0.46191  0.77887  1.0000
  H   H186      1.0  0.10758  0.46656  0.85938  1.0000
  O   O94       1.0  0.50631  0.97238  0.07453  1.0000
  H   H187      1.0  0.56003  1.00381  0.08607  1.0000
  H   H188      1.0  0.51416  0.93195  0.02543  1.0000
  O   O95       1.0  0.34969  0.53775  0.36441  1.0000
  H   H189      1.0  0.31540  0.59156  0.36657  1.0000
  H   H190      1.0  0.40696  0.55759  0.36838  1.0000
  O   O96       1.0  0.92318  0.23611  0.80082  1.0000
  H   H191      1.0  0.96134  0.22517  0.75200  1.0000
  H   H192      1.0  0.90196  0.18177  0.82264  1.0000
  O   O97       1.0  0.65761  0.05740  0.14305  1.0000
  H   H193      1.0  0.67305  0.06512  0.08465  1.0000
  H   H194      1.0  0.67709  -0.00196  0.15106  1.0000
  O   O98       1.0  0.27687  0.52077  0.59790  1.0000
  H   H195      1.0  0.32590  0.56583  0.59432  1.0000
  H   H196      1.0  0.27837  0.49078  0.54051  1.0000
  O   O99       1.0  0.13566  0.43095  0.34212  1.0000
  H   H197      1.0  0.08309  0.45654  0.36597  1.0000
  H   H198      1.0  0.15980  0.40520  0.39643  1.0000
  O   O100      1.0  0.32292  0.94458  0.52987  1.0000
  H   H199      1.0  0.36732  0.96804  0.57076  1.0000
  H   H200      1.0  0.34644  0.96891  0.47483  1.0000
  O   O101      1.0  0.93772  0.03538  0.45034  1.0000
  H   H201      1.0  0.88802  0.07141  0.45485  1.0000
  H   H202      1.0  0.92978  -0.00163  0.39980  1.0000
  O   O102      1.0  0.38923  0.65216  0.63542  1.0000
  H   H203      1.0  0.38364  0.68343  0.58185  1.0000
  H   H204      1.0  0.33103  0.66146  0.66095  1.0000
  O   O103      1.0  0.84959  0.88770  0.82016  1.0000
  H   H205      1.0  0.88516  0.87931  0.87481  1.0000
  H   H206      1.0  0.89541  0.89973  0.77650  1.0000
  O   O104      1.0  0.29631  0.08483  0.37147  1.0000
  H   H207      1.0  0.34768  0.05032  0.35023  1.0000
  H   H208      1.0  0.24496  0.05715  0.34337  1.0000
  O   O105      1.0  0.44274  0.98671  0.36606  1.0000
  H   H209      1.0  0.45529  1.05070  0.36333  1.0000
  H   H210      1.0  0.42817  0.96332  0.30903  1.0000
  O   O106      1.0  0.80284  0.10018  0.63271  1.0000
  H   H211      1.0  0.75633  0.09227  0.59518  1.0000
  H   H212      1.0  0.84178  0.04863  0.63395  1.0000
  O   O107      1.0  0.43032  0.80580  0.76169  1.0000
  H   H213      1.0  0.40982  0.75720  0.72289  1.0000
  H   H214      1.0  0.37919  0.84546  0.75680  1.0000
  O   O108      1.0  0.43021  0.43724  0.08844  1.0000
  H   H215      1.0  0.39425  0.48044  0.11978  1.0000
  H   H216      1.0  0.48904  0.44994  0.10615  1.0000
  O   O109      1.0  0.68363  0.88360  0.14075  1.0000
  H   H217      1.0  0.68689  0.84987  0.19583  1.0000
  H   H218      1.0  0.63018  0.86152  0.11549  1.0000
  O   O110      1.0  0.25169  0.22948  0.51088  1.0000
  H   H219      1.0  0.26962  0.19644  0.46032  1.0000
  H   H220      1.0  0.19947  0.26175  0.49985  1.0000
  O   O111      1.0  0.69925  0.62504  0.31373  1.0000
  H   H221      1.0  0.72001  0.68276  0.29760  1.0000
  H   H222      1.0  0.75248  0.59880  0.34081  1.0000
  O   O112      1.0  0.76536  0.09564  0.44008  1.0000
  H   H223      1.0  0.76217  0.05256  0.39563  1.0000
  H   H224      1.0  0.70515  0.09619  0.46293  1.0000
  O   O113      1.0  0.11119  0.86374  0.78028  1.0000
  H   H225      1.0  0.12644  0.80442  0.80999  1.0000
  H   H226      1.0  0.12566  0.86474  0.71591  1.0000
  O   O114      1.0  0.35294  0.04311  0.13616  1.0000
  H   H227      1.0  0.33430  0.05402  0.07744  1.0000
  H   H228      1.0  0.40457  0.00970  0.13276  1.0000
  O   O115      1.0  0.72599  0.85132  0.69890  1.0000
  H   H229      1.0  0.66961  0.88091  0.70477  1.0000
  H   H230      1.0  0.77309  0.86579  0.74486  1.0000
  O   O116      1.0  0.01665  0.81286  0.47401  1.0000
  H   H231      1.0  -0.04259  0.79448  0.47583  1.0000
  H   H232      1.0  0.04978  0.75975  0.47783  1.0000
  O   O117      1.0  0.29592  0.49582  0.89060  1.0000
  H   H233      1.0  0.23716  0.50875  0.87499  1.0000
  H   H234      1.0  0.31080  0.43842  0.86692  1.0000
  O   O118      1.0  0.02632  0.05414  0.59024  1.0000
  H   H235      1.0  0.08960  0.04999  0.60264  1.0000
  H   H236      1.0  0.01407  0.02435  0.53506  1.0000
  O   O119      1.0  0.96531  0.50212  0.11053  1.0000
  H   H237      1.0  0.98210  0.55135  0.15025  1.0000
  H   H238      1.0  0.90737  0.51556  0.08917  1.0000
  O   O120      1.0  0.26317  0.73205  0.72316  1.0000
  H   H239      1.0  0.27704  0.70526  0.78016  1.0000
  H   H240      1.0  0.24361  0.79056  0.74739  1.0000
  O   O121      1.0  0.23098  0.18668  0.98720  1.0000
  H   H241      1.0  0.20602  0.14625  1.03146  1.0000
  H   H242      1.0  0.18039  0.19275  0.94939  1.0000
  O   O122      1.0  0.77307  0.93477  0.34824  1.0000
  H   H243      1.0  0.71085  0.93905  0.34192  1.0000
  H   H244      1.0  0.78760  0.92573  0.40721  1.0000
  O   O123      1.0  0.32892  0.79743  0.97088  1.0000
  H   H245      1.0  0.31651  0.85407  0.94767  1.0000
  H   H246      1.0  0.33175  0.75686  0.92368  1.0000
  O   O124      1.0  0.84339  0.87971  0.50552  1.0000
  H   H247      1.0  0.88995  0.89689  0.55090  1.0000
  H   H248      1.0  0.80105  0.84944  0.53987  1.0000
  O   O125      1.0  0.11967  0.94423  0.93544  1.0000
  H   H249      1.0  0.09096  0.89739  0.96174  1.0000
  H   H250      1.0  0.12766  0.92155  0.87599  1.0000
