data_image0
_chemical_formula_structural       OH2OH2OH2OH2OH2OH2OH2OH2OH2OH2OH2OH2OH2OH2OH2OH2OH2OH2OH2OH2OH2OH2OH2OH2OH2OH2OH2OH2OH2OH2OH2OH2OH2OH2OH2OH2OH2OH2OH2OH2OH2OH2OH2OH2OH2OH2OH2OH2OH2OH2OH2OH2OH2OH2OH2OH2OH2OH2OH2OH2OH2OH2OH2OH2OH2OH2OH2OH2OH2OH2OH2OH2OH2OH2OH2OH2OH2OH2OH2OH2OH2OH2OH2OH2OH2OH2OH2OH2OH2OH2OH2OH2OH2OH2OH2OH2OH2OH2OH2OH2OH2OH2OH2OH2OH2OH2OH2OH2OH2OH2OH2OH2OH2OH2OH2OH2OH2OH2OH2OH2OH2OH2OH2OH2OH2
_chemical_formula_sum              "O125 H250"
_cell_length_a       15.536
_cell_length_b       15.536
_cell_length_c       15.536
_cell_angle_alpha    90
_cell_angle_beta     90
_cell_angle_gamma    90

_space_group_name_H-M_alt    "P 1"
_space_group_IT_number       1

loop_
  _space_group_symop_operation_xyz
  'x, y, z'

loop_
  _atom_site_type_symbol
  _atom_site_label
  _atom_site_symmetry_multiplicity
  _atom_site_fract_x
  _atom_site_fract_y
  _atom_site_fract_z
  _atom_site_occupancy
  O   O1        1.0  0.13322  0.09158  0.09272  1.0000
  H   H1        1.0  0.10175  0.11568  0.14446  1.0000
  H   H2        1.0  0.09036  0.06510  0.05212  1.0000
  O   O2        1.0  0.50572  0.17076  0.95871  1.0000
  H   H3        1.0  0.54623  0.21399  0.93511  1.0000
  H   H4        1.0  0.53884  0.11756  0.94938  1.0000
  O   O3        1.0  0.20501  0.39086  0.69142  1.0000
  H   H5        1.0  0.22103  0.43674  0.65216  1.0000
  H   H6        1.0  0.25818  0.37808  0.72531  1.0000
  O   O4        1.0  0.29074  0.97563  0.90428  1.0000
  H   H7        1.0  0.22611  0.97553  0.92038  1.0000
  H   H8        1.0  0.30061  1.03519  0.91411  1.0000
  O   O5        1.0  0.50588  0.60609  0.32111  1.0000
  H   H9        1.0  0.57015  0.59002  0.31306  1.0000
  H   H10       1.0  0.50179  0.66967  0.33955  1.0000
  O   O6        1.0  0.10896  0.31537  0.51556  1.0000
  H   H11       1.0  0.10304  0.37503  0.53625  1.0000
  H   H12       1.0  0.09052  0.31285  0.45790  1.0000
  O   O7        1.0  0.27619  0.41132  0.44981  1.0000
  H   H13       1.0  0.28946  0.35450  0.46820  1.0000
  H   H14       1.0  0.32680  0.43735  0.41887  1.0000
  O   O8        1.0  0.39058  0.67122  0.18263  1.0000
  H   H15       1.0  0.37025  0.65334  0.23867  1.0000
  H   H16       1.0  0.34366  0.71961  0.16971  1.0000
  O   O9        1.0  0.35817  0.17933  0.86475  1.0000
  H   H17       1.0  0.31395  0.18004  0.91319  1.0000
  H   H18       1.0  0.41301  0.17843  0.89037  1.0000
  O   O10       1.0  0.88642  0.21938  0.54217  1.0000
  H   H19       1.0  0.93687  0.22939  0.57872  1.0000
  H   H20       1.0  0.84464  0.18473  0.57605  1.0000
  O   O11       1.0  0.93356  0.94737  0.26340  1.0000
  H   H21       1.0  0.88037  0.95562  0.29664  1.0000
  H   H22       1.0  0.92115  0.98067  0.20819  1.0000
  O   O12       1.0  0.48958  0.82485  0.95671  1.0000
  H   H23       1.0  0.42740  0.80995  0.96562  1.0000
  H   H24       1.0  0.51053  0.78062  0.91400  1.0000
  O   O13       1.0  0.40142  0.30269  0.59907  1.0000
  H   H25       1.0  0.34961  0.27639  0.56378  1.0000
  H   H26       1.0  0.39573  0.36450  0.61138  1.0000
  O   O14       1.0  0.84698  0.87715  0.01698  1.0000
  H   H27       1.0  0.84201  0.83787  0.06500  1.0000
  H   H28       1.0  0.85523  0.93626  0.04311  1.0000
  O   O15       1.0  0.65242  0.36824  0.58375  1.0000
  H   H29       1.0  0.70007  0.36832  0.53707  1.0000
  H   H30       1.0  0.62130  0.30981  0.57356  1.0000
  O   O16       1.0  0.28244  0.79858  0.19828  1.0000
  H   H31       1.0  0.24033  0.77980  0.15333  1.0000
  H   H32       1.0  0.25781  0.76745  0.24690  1.0000
  O   O17       1.0  0.54384  0.47575  0.47984  1.0000
  H   H33       1.0  0.56741  0.43309  0.51404  1.0000
  H   H34       1.0  0.57405  0.47529  0.42612  1.0000
  O   O18       1.0  0.69781  0.75736  0.55346  1.0000
  H   H35       1.0  0.69670  0.78988  0.60178  1.0000
  H   H36       1.0  0.65765  0.70512  0.56324  1.0000
  O   O19       1.0  0.02745  0.37084  0.87734  1.0000
  H   H37       1.0  0.01964  0.37465  0.94207  1.0000
  H   H38       1.0  -0.02719  0.34812  0.85132  1.0000
  O   O20       1.0  0.84444  0.25358  0.05676  1.0000
  H   H39       1.0  0.89131  0.29341  0.04717  1.0000
  H   H40       1.0  0.85175  0.23043  0.11688  1.0000
  O   O21       1.0  0.68153  0.74891  0.83492  1.0000
  H   H41       1.0  0.74016  0.72305  0.84411  1.0000
  H   H42       1.0  0.69091  0.78556  0.78188  1.0000
  O   O22       1.0  0.20250  0.04737  0.61262  1.0000
  H   H43       1.0  0.25060  0.01135  0.59000  1.0000
  H   H44       1.0  0.22436  0.10244  0.63140  1.0000
  O   O23       1.0  0.34840  0.66083  0.86494  1.0000
  H   H45       1.0  0.41069  0.66514  0.87908  1.0000
  H   H46       1.0  0.33360  0.59942  0.86800  1.0000
  O   O24       1.0  0.00736  0.24060  0.39618  1.0000
  H   H47       1.0  -0.00471  0.19062  0.43094  1.0000
  H   H48       1.0  0.02583  0.21672  0.34166  1.0000
  O   O25       1.0  0.97805  0.75734  0.70546  1.0000
  H   H49       1.0  0.97553  0.70156  0.73762  1.0000
  H   H50       1.0  1.02280  0.78674  0.73586  1.0000
  O   O26       1.0  0.50940  0.16163  0.34148  1.0000
  H   H51       1.0  0.45019  0.17694  0.32271  1.0000
  H   H52       1.0  0.55064  0.18247  0.30181  1.0000
  O   O27       1.0  0.29451  0.92503  0.73900  1.0000
  H   H53       1.0  0.30270  0.93789  0.80092  1.0000
  H   H54       1.0  0.27108  0.98263  0.72088  1.0000
  O   O28       1.0  0.14894  0.85935  0.60475  1.0000
  H   H55       1.0  0.11147  0.82996  0.55919  1.0000
  H   H56       1.0  0.17953  0.90106  0.57104  1.0000
  O   O29       1.0  0.73600  0.39326  0.02830  1.0000
  H   H57       1.0  0.77514  0.34808  0.05062  1.0000
  H   H58       1.0  0.75353  0.41375  -0.02878  1.0000
  O   O30       1.0  0.19427  0.73141  0.07382  1.0000
  H   H59       1.0  0.23393  0.75354  0.02612  1.0000
  H   H60       1.0  0.20754  0.66614  0.07267  1.0000
  O   O31       1.0  0.32509  0.33718  0.79719  1.0000
  H   H61       1.0  0.34223  0.28351  0.82764  1.0000
  H   H62       1.0  0.37939  0.35813  0.76737  1.0000
  O   O32       1.0  0.54571  0.24449  0.50707  1.0000
  H   H63       1.0  0.49184  0.26283  0.52989  1.0000
  H   H64       1.0  0.53432  0.21165  0.45557  1.0000
  O   O33       1.0  0.19613  0.25908  0.26130  1.0000
  H   H65       1.0  0.16953  0.30710  0.28546  1.0000
  H   H66       1.0  0.20760  0.27442  0.20253  1.0000
  O   O34       1.0  0.57124  0.62596  0.57162  1.0000
  H   H67       1.0  0.51765  0.65642  0.59688  1.0000
  H   H68       1.0  0.55346  0.57614  0.53892  1.0000
  O   O35       1.0  0.61671  0.30285  0.93356  1.0000
  H   H69       1.0  0.65229  0.24810  0.94054  1.0000
  H   H70       1.0  0.65275  0.33842  0.97294  1.0000
  O   O36       1.0  0.10818  0.64879  0.62528  1.0000
  H   H71       1.0  0.06346  0.69126  0.61547  1.0000
  H   H72       1.0  0.14972  0.67303  0.66511  1.0000
  O   O37       1.0  0.53484  0.99310  0.88163  1.0000
  H   H73       1.0  0.48212  0.97453  0.90887  1.0000
  H   H74       1.0  0.57725  0.95098  0.89347  1.0000
  O   O38       1.0  0.60220  0.92002  0.32265  1.0000
  H   H75       1.0  0.54397  0.94535  0.33961  1.0000
  H   H76       1.0  0.59255  0.89454  0.26509  1.0000
  O   O39       1.0  0.91274  0.48482  0.66143  1.0000
  H   H77       1.0  0.87102  0.52398  0.62612  1.0000
  H   H78       1.0  0.88246  0.43208  0.68021  1.0000
  O   O40       1.0  0.26794  0.70670  0.35420  1.0000
  H   H79       1.0  0.21459  0.67397  0.37035  1.0000
  H   H80       1.0  0.29424  0.72175  0.41106  1.0000
  O   O41       1.0  0.05500  0.15972  0.24596  1.0000
  H   H81       1.0  0.08157  0.10750  0.26253  1.0000
  H   H82       1.0  0.10383  0.19800  0.24925  1.0000
  O   O42       1.0  0.74322  0.78315  0.26916  1.0000
  H   H83       1.0  0.79027  0.76927  0.22689  1.0000
  H   H84       1.0  0.77170  0.83617  0.28871  1.0000
  O   O43       1.0  0.61764  0.08800  0.54531  1.0000
  H   H85       1.0  0.57432  0.05823  0.58147  1.0000
  H   H86       1.0  0.59460  0.14515  0.54234  1.0000
  O   O44       1.0  0.18965  0.33619  0.09231  1.0000
  H   H87       1.0  0.23442  0.30677  0.05374  1.0000
  H   H88       1.0  0.20446  0.39745  0.09402  1.0000
  O   O45       1.0  0.93099  0.92435  0.64892  1.0000
  H   H89       1.0  0.97760  0.96445  0.62442  1.0000
  H   H90       1.0  0.95152  0.86347  0.66313  1.0000
  O   O46       1.0  0.66011  0.50427  0.68748  1.0000
  H   H91       1.0  0.65417  0.44429  0.66063  1.0000
  H   H92       1.0  0.61928  0.54430  0.65566  1.0000
  O   O47       1.0  0.01175  0.79050  0.98647  1.0000
  H   H93       1.0  -0.04698  0.81525  0.99130  1.0000
  H   H94       1.0  0.01556  0.73775  1.02139  1.0000
  O   O48       1.0  0.82879  0.59559  0.05463  1.0000
  H   H95       1.0  0.76751  0.60868  0.07327  1.0000
  H   H96       1.0  0.83681  0.61087  -0.00574  1.0000
  O   O49       1.0  0.84861  0.16991  0.20608  1.0000
  H   H97       1.0  0.82753  0.20141  0.25747  1.0000
  H   H98       1.0  0.91124  0.17109  0.21071  1.0000
  O   O50       1.0  0.55851  0.91538  0.72763  1.0000
  H   H99       1.0  0.54947  0.94829  0.78108  1.0000
  H   H100      1.0  0.51722  0.86330  0.73658  1.0000
  O   O51       1.0  0.85954  0.73369  0.14194  1.0000
  H   H101      1.0  0.83548  0.68050  0.12217  1.0000
  H   H102      1.0  0.90145  0.71593  0.18892  1.0000
  O   O52       1.0  0.20470  0.55954  0.05756  1.0000
  H   H103      1.0  0.22571  0.53267  0.11154  1.0000
  H   H104      1.0  0.22284  0.51720  0.01254  1.0000
  O   O53       1.0  0.06824  0.47703  0.56986  1.0000
  H   H105      1.0  0.08894  0.53225  0.59413  1.0000
  H   H106      1.0  0.01081  0.46410  0.59315  1.0000
  O   O54       1.0  0.53044  0.76262  0.11503  1.0000
  H   H107      1.0  0.49289  0.72433  0.14972  1.0000
  H   H108      1.0  0.50057  0.78591  0.06251  1.0000
  O   O55       1.0  0.64006  0.36092  0.30819  1.0000
  H   H109      1.0  0.63770  0.30245  0.28224  1.0000
  H   H110      1.0  0.61322  0.39745  0.26869  1.0000
  O   O56       1.0  0.03556  0.60426  0.00029  1.0000
  H   H111      1.0  0.01690  0.55595  0.03804  1.0000
  H   H112      1.0  0.09138  0.61258  0.02850  1.0000
  O   O57       1.0  0.67709  0.89649  0.92906  1.0000
  H   H113      1.0  0.73675  0.90094  0.94994  1.0000
  H   H114      1.0  0.67011  0.83985  0.89876  1.0000
  O   O58       1.0  0.48089  0.77153  0.35891  1.0000
  H   H115      1.0  0.53434  0.78803  0.38285  1.0000
  H   H116      1.0  0.46364  0.81337  0.31044  1.0000
  O   O59       1.0  0.83331  0.54259  0.40712  1.0000
  H   H117      1.0  0.82068  0.58484  0.45167  1.0000
  H   H118      1.0  0.81691  0.48265  0.42316  1.0000
  O   O60       1.0  0.04172  0.80449  0.29334  1.0000
  H   H119      1.0  0.01121  0.85476  0.27060  1.0000
  H   H120      1.0  0.04538  0.80883  0.35657  1.0000
  O   O61       1.0  0.76364  0.38853  0.46139  1.0000
  H   H121      1.0  0.71997  0.39398  0.40946  1.0000
  H   H122      1.0  0.79255  0.33022  0.45317  1.0000
  O   O62       1.0  0.15192  0.70987  0.88688  1.0000
  H   H123      1.0  0.09639  0.72839  0.91134  1.0000
  H   H124      1.0  0.15083  0.64733  0.87837  1.0000
  O   O63       1.0  0.46761  0.26488  0.11543  1.0000
  H   H125      1.0  0.46311  0.32797  0.10745  1.0000
  H   H126      1.0  0.50131  0.24124  0.06583  1.0000
  O   O64       1.0  0.52285  0.48095  0.90847  1.0000
  H   H127      1.0  0.49587  0.47157  0.96447  1.0000
  H   H128      1.0  0.55920  0.42941  0.89669  1.0000
  O   O65       1.0  0.81289  0.35126  0.72078  1.0000
  H   H129      1.0  0.84272  0.30144  0.75565  1.0000
  H   H130      1.0  0.75678  0.33239  0.69865  1.0000
  O   O66       1.0  0.02564  0.10715  0.94801  1.0000
  H   H131      1.0  0.05147  0.05307  0.92600  1.0000
  H   H132      1.0  0.04575  0.15708  0.91651  1.0000
  O   O67       1.0  0.61664  0.21764  0.21751  1.0000
  H   H133      1.0  0.56945  0.23543  0.17926  1.0000
  H   H134      1.0  0.63168  0.16182  0.20218  1.0000
  O   O68       1.0  0.02678  0.21907  0.66169  1.0000
  H   H135      1.0  0.03903  0.15607  0.65289  1.0000
  H   H136      1.0  0.05884  0.24983  0.61508  1.0000
  O   O69       1.0  0.01197  0.34360  0.04871  1.0000
  H   H137      1.0  -0.00533  0.39328  0.08203  1.0000
  H   H138      1.0  0.07535  0.33334  0.05473  1.0000
  O   O70       1.0  0.83169  0.63657  0.88795  1.0000
  H   H139      1.0  0.82079  0.57745  0.87274  1.0000
  H   H140      1.0  0.89380  0.64168  0.87837  1.0000
  O   O71       1.0  0.00985  0.51350  0.41578  1.0000
  H   H141      1.0  0.02683  0.50055  0.48159  1.0000
  H   H142      1.0  -0.05044  0.53329  0.41562  1.0000
  O   O72       1.0  0.82887  0.25186  0.35946  1.0000
  H   H143      1.0  0.88359  0.26732  0.39120  1.0000
  H   H144      1.0  0.81005  0.19768  0.38587  1.0000
  O   O73       1.0  0.82329  0.07986  0.81808  1.0000
  H   H145      1.0  0.82548  0.08535  0.75472  1.0000
  H   H146      1.0  0.84248  0.02066  0.82556  1.0000
  O   O74       1.0  0.25119  0.48448  0.20186  1.0000
  H   H147      1.0  0.19621  0.46738  0.23368  1.0000
  H   H148      1.0  0.29424  0.49263  0.24753  1.0000
  O   O75       1.0  0.98427  0.59495  0.76667  1.0000
  H   H149      1.0  1.04181  0.57021  0.78098  1.0000
  H   H150      1.0  0.96732  0.54735  0.73113  1.0000
  O   O76       1.0  0.18720  0.00780  0.26312  1.0000
  H   H151      1.0  0.22012  0.00842  0.21183  1.0000
  H   H152      1.0  0.16699  -0.05163  0.27117  1.0000
  O   O77       1.0  0.61157  0.45838  0.15919  1.0000
  H   H153      1.0  0.65911  0.42417  0.14235  1.0000
  H   H154      1.0  0.62184  0.51825  0.13863  1.0000
  O   O78       1.0  0.36507  0.25441  0.26827  1.0000
  H   H155      1.0  0.30273  0.25310  0.26590  1.0000
  H   H156      1.0  0.38379  0.24361  0.20516  1.0000
  O   O79       1.0  0.00304  0.63808  0.22610  1.0000
  H   H157      1.0  0.03475  0.69378  0.22776  1.0000
  H   H158      1.0  0.02501  0.59834  0.27115  1.0000
  O   O80       1.0  0.46931  0.01177  0.60830  1.0000
  H   H159      1.0  0.44005  0.05803  0.63834  1.0000
  H   H160      1.0  0.49480  -0.02774  0.64554  1.0000
  O   O81       1.0  0.12251  0.22955  0.84959  1.0000
  H   H161      1.0  0.12671  0.22128  0.78615  1.0000
  H   H162      1.0  0.08429  0.27847  0.85973  1.0000
  O   O82       1.0  0.90146  0.02735  0.09429  1.0000
  H   H163      1.0  0.94048  0.05696  0.05690  1.0000
  H   H164      1.0  0.85124  0.06651  0.09645  1.0000
  O   O83       1.0  0.44761  0.45822  0.75202  1.0000
  H   H165      1.0  0.41475  0.50583  0.73034  1.0000
  H   H166      1.0  0.48844  0.48620  0.79137  1.0000
  O   O84       1.0  0.79375  0.60624  0.60394  1.0000
  H   H167      1.0  0.75868  0.55848  0.62151  1.0000
  H   H168      1.0  0.76231  0.65829  0.60869  1.0000
  O   O85       1.0  0.72748  0.16382  0.95254  1.0000
  H   H169      1.0  0.75170  0.15561  0.89604  1.0000
  H   H170      1.0  0.77064  0.19067  0.98602  1.0000
  O   O86       1.0  0.79364  0.45601  0.85256  1.0000
  H   H171      1.0  0.80910  0.40707  0.81358  1.0000
  H   H172      1.0  0.75746  0.49436  0.81876  1.0000
  O   O87       1.0  0.67101  0.62975  0.11744  1.0000
  H   H173      1.0  0.68339  0.63403  0.17816  1.0000
  H   H174      1.0  0.62174  0.67280  0.11154  1.0000
  O   O88       1.0  0.53329  0.66749  0.87608  1.0000
  H   H175      1.0  0.54635  0.60928  0.90152  1.0000
  H   H176      1.0  0.58643  0.68631  0.84937  1.0000
  O   O89       1.0  0.44800  0.87443  0.22511  1.0000
  H   H177      1.0  0.47858  0.84306  0.17984  1.0000
  H   H178      1.0  0.38938  0.88425  0.20060  1.0000
  O   O90       1.0  0.12041  0.64395  0.44270  1.0000
  H   H179      1.0  0.13531  0.62995  0.49974  1.0000
  H   H180      1.0  0.08752  0.59372  0.42172  1.0000
  O   O91       1.0  0.38338  0.13514  0.70479  1.0000
  H   H181      1.0  0.38909  0.14530  0.76696  1.0000
  H   H182      1.0  0.38273  0.19368  0.68078  1.0000
  O   O92       1.0  0.35566  0.76691  0.48924  1.0000
  H   H183      1.0  0.40537  0.77941  0.44887  1.0000
  H   H184      1.0  0.32439  0.81776  0.50184  1.0000
  O   O93       1.0  0.13273  0.50759  0.83325  1.0000
  H   H185      1.0  0.16193  0.47374  0.78408  1.0000
  H   H186      1.0  0.09358  0.46075  0.85774  1.0000
  O   O94       1.0  0.51799  0.98492  0.06407  1.0000
  H   H187      1.0  0.55939  1.00951  0.10651  1.0000
  H   H188      1.0  0.55234  0.95843  0.02071  1.0000
  O   O95       1.0  0.35637  0.54333  0.35944  1.0000
  H   H189      1.0  0.33208  0.59947  0.37078  1.0000
  H   H190      1.0  0.41730  0.55836  0.35000  1.0000
  O   O96       1.0  0.91099  0.24437  0.80442  1.0000
  H   H191      1.0  0.94418  0.22173  0.75932  1.0000
  H   H192      1.0  0.89088  0.19064  0.83254  1.0000
  O   O97       1.0  0.65409  0.05153  0.14377  1.0000
  H   H193      1.0  0.69694  0.08644  0.11587  1.0000
  H   H194      1.0  0.67678  -0.00674  0.14040  1.0000
  O   O98       1.0  0.27342  0.50946  0.58464  1.0000
  H   H195      1.0  0.31531  0.55560  0.57743  1.0000
  H   H196      1.0  0.27037  0.46419  0.53846  1.0000
  O   O99       1.0  0.13639  0.43799  0.32407  1.0000
  H   H197      1.0  0.08100  0.44326  0.35411  1.0000
  H   H198      1.0  0.18399  0.45474  0.36597  1.0000
  O   O100      1.0  0.30816  0.93430  0.53333  1.0000
  H   H199      1.0  0.35651  0.95361  0.57221  1.0000
  H   H200      1.0  0.31620  0.96737  0.47948  1.0000
  O   O101      1.0  0.94332  0.05244  0.42836  1.0000
  H   H201      1.0  0.88087  0.06569  0.42627  1.0000
  H   H202      1.0  0.95661  0.00934  0.38313  1.0000
  O   O102      1.0  0.38573  0.66223  0.62588  1.0000
  H   H203      1.0  0.36609  0.68567  0.57201  1.0000
  H   H204      1.0  0.33114  0.67288  0.65803  1.0000
  O   O103      1.0  0.85830  0.90557  0.82443  1.0000
  H   H205      1.0  0.87595  0.86782  0.87155  1.0000
  H   H206      1.0  0.90964  0.90583  0.78499  1.0000
  O   O104      1.0  0.29815  0.09699  0.36642  1.0000
  H   H207      1.0  0.35414  0.06020  0.36090  1.0000
  H   H208      1.0  0.26339  0.07725  0.31407  1.0000
  O   O105      1.0  0.44045  0.99553  0.36904  1.0000
  H   H209      1.0  0.47179  1.05322  0.36366  1.0000
  H   H210      1.0  0.43208  0.97017  0.31187  1.0000
  O   O106      1.0  0.79968  0.10336  0.63437  1.0000
  H   H211      1.0  0.73942  0.09873  0.61585  1.0000
  H   H212      1.0  0.83595  0.05667  0.61014  1.0000
  O   O107      1.0  0.43826  0.80773  0.75641  1.0000
  H   H213      1.0  0.42986  0.75170  0.72840  1.0000
  H   H214      1.0  0.39879  0.85668  0.73371  1.0000
  O   O108      1.0  0.42872  0.44820  0.09066  1.0000
  H   H215      1.0  0.39542  0.50024  0.10707  1.0000
  H   H216      1.0  0.47825  0.45247  0.12692  1.0000
  O   O109      1.0  0.67067  0.87777  0.14681  1.0000
  H   H217      1.0  0.70216  0.84656  0.19299  1.0000
  H   H218      1.0  0.62802  0.83733  0.12341  1.0000
  O   O110      1.0  0.26489  0.21758  0.51245  1.0000
  H   H219      1.0  0.25664  0.16803  0.47071  1.0000
  H   H220      1.0  0.21077  0.24922  0.51448  1.0000
  O   O111      1.0  0.69064  0.61200  0.30817  1.0000
  H   H221      1.0  0.71586  0.67085  0.29989  1.0000
  H   H222      1.0  0.74193  0.57623  0.32474  1.0000
  O   O112      1.0  0.76008  0.09329  0.42873  1.0000
  H   H223      1.0  0.75584  0.05701  0.37879  1.0000
  H   H224      1.0  0.70302  0.08562  0.45855  1.0000
  O   O113      1.0  0.10911  0.85488  0.78028  1.0000
  H   H225      1.0  0.12563  0.79648  0.79911  1.0000
  H   H226      1.0  0.14540  0.87413  0.73021  1.0000
  O   O114      1.0  0.34613  0.04571  0.13765  1.0000
  H   H227      1.0  0.32949  0.09610  0.10689  1.0000
  H   H228      1.0  0.39842  0.03231  0.10993  1.0000
  O   O115      1.0  0.72725  0.85621  0.69701  1.0000
  H   H229      1.0  0.66654  0.87623  0.70477  1.0000
  H   H230      1.0  0.76854  0.89336  0.73379  1.0000
  O   O116      1.0  0.02055  0.80198  0.47415  1.0000
  H   H231      1.0  -0.03627  0.82986  0.48107  1.0000
  H   H232      1.0  0.01586  0.73927  0.47790  1.0000
  O   O117      1.0  0.30099  0.48771  0.89120  1.0000
  H   H233      1.0  0.23706  0.48521  0.87811  1.0000
  H   H234      1.0  0.32538  0.43771  0.85879  1.0000
  O   O118      1.0  0.02723  0.04742  0.59868  1.0000
  H   H235      1.0  0.09005  0.03601  0.60168  1.0000
  H   H236      1.0  0.00208  0.05902  0.54090  1.0000
  O   O119      1.0  0.95687  0.50619  0.12445  1.0000
  H   H237      1.0  0.97676  0.55172  0.16669  1.0000
  H   H238      1.0  0.90368  0.52924  0.09626  1.0000
  O   O120      1.0  0.26193  0.73578  0.72481  1.0000
  H   H239      1.0  0.28161  0.72592  0.78609  1.0000
  H   H240      1.0  0.26913  0.79585  0.70693  1.0000
  O   O121      1.0  0.23541  0.19470  0.98854  1.0000
  H   H241      1.0  0.19522  0.16201  1.02677  1.0000
  H   H242      1.0  0.19520  0.21352  0.94181  1.0000
  O   O122      1.0  0.77619  0.94997  0.34257  1.0000
  H   H243      1.0  0.71463  0.94002  0.34056  1.0000
  H   H244      1.0  0.79500  0.93304  0.39916  1.0000
  O   O123      1.0  0.31421  0.79178  0.97172  1.0000
  H   H245      1.0  0.29656  0.84516  0.93942  1.0000
  H   H246      1.0  0.30722  0.74499  0.93110  1.0000
  O   O124      1.0  0.84625  0.86057  0.50022  1.0000
  H   H247      1.0  0.86370  0.88074  0.56131  1.0000
  H   H248      1.0  0.79632  0.82297  0.50947  1.0000
  O   O125      1.0  0.12286  0.93476  0.93426  1.0000
  H   H249      1.0  0.10886  0.89360  0.97621  1.0000
  H   H250      1.0  0.12382  0.90172  0.88044  1.0000
